/*--------------------------------*- C++ -*----------------------------------*\
| =========                 |                                                 |
| \\      /  F ield         | OpenFOAM: The Open Source CFD Toolbox           |
|  \\    /   O peration     | Version:  v2012                                 |
|   \\  /    A nd           | Website:  www.openfoam.com                      |
|    \\/     M anipulation  |                                                 |
\*---------------------------------------------------------------------------*/
FoamFile
{
    version     2.0;
    format      ascii;
    class       polyBoundaryMesh;
    location    "constant/polyMesh";
    object      boundary;
}
// * * * * * * * * * * * * * * * * * * * * * * * * * * * * * * * * * * * * * //

5
(
    bottom
    {
        type            patch;
        physicalType    patch;
        nFaces          33;
        startFace       3748;
    }
    left
    {
        type            patch;
        physicalType    patch;
        nFaces          33;
        startFace       3781;
    }
    right
    {
        type            patch;
        physicalType    patch;
        nFaces          33;
        startFace       3814;
    }
    top
    {
        type            patch;
        physicalType    patch;
        nFaces          33;
        startFace       3847;
    }
    defaultFaces
    {
        type            patch;
        nFaces          5000;
        startFace       3880;
    }
)

// ************************************************************************* //
