/*--------------------------------*- C++ -*----------------------------------*\
| =========                 |                                                 |
| \\      /  F ield         | OpenFOAM: The Open Source CFD Toolbox           |
|  \\    /   O peration     | Version:  v2012                                 |
|   \\  /    A nd           | Website:  www.openfoam.com                      |
|    \\/     M anipulation  |                                                 |
\*---------------------------------------------------------------------------*/
FoamFile
{
    version     2.0;
    format      ascii;
    class       polyBoundaryMesh;
    location    "constant/polyMesh";
    object      boundary;
}
// * * * * * * * * * * * * * * * * * * * * * * * * * * * * * * * * * * * * * //

5
(
    frontAndBack
    {
        type            patch;
        physicalType    patch;
        nFaces          5316;
        startFace       3923;
    }
    bottom
    {
        type            patch;
        physicalType    patch;
        nFaces          32;
        startFace       9239;
    }
    right
    {
        type            patch;
        physicalType    patch;
        nFaces          32;
        startFace       9271;
    }
    top
    {
        type            patch;
        physicalType    patch;
        nFaces          32;
        startFace       9303;
    }
    left
    {
        type            patch;
        physicalType    patch;
        nFaces          32;
        startFace       9335;
    }
)

// ************************************************************************* //
