/*--------------------------------*- C++ -*----------------------------------*\
| =========                 |                                                 |
| \\      /  F ield         | OpenFOAM: The Open Source CFD Toolbox           |
|  \\    /   O peration     | Version:  v2106                                 |
|   \\  /    A nd           | Website:  www.openfoam.com                      |
|    \\/     M anipulation  |                                                 |
\*---------------------------------------------------------------------------*/
FoamFile
{
    version     2.0;
    format      ascii;
    arch        "LSB;label=32;scalar=64";
    class       volScalarField;
    location    "constant";
    object      aspectRatio;
}
// * * * * * * * * * * * * * * * * * * * * * * * * * * * * * * * * * * * * * //

dimensions      [0 0 0 0 0 0 0];

internalField   nonuniform List<scalar> 
2658
(
7.35503
7.04738
7.04046
7.04046
7.04046
7.04046
6.94449
6.94449
6.94449
6.94449
9.67948
9.67948
9.67948
9.67948
7.80214
8.95694
8.95694
8.68829
8.73478
6.43525
6.43525
6.43525
6.43525
7.29554
6.88855
7.98829
8.85669
7.27907
7.27907
7.27907
7.27907
7.13176
7.13176
7.13176
7.13176
6.86244
6.04652
6.04652
6.04652
6.04652
7.14401
7.14401
7.14401
7.14401
8.22716
7.01007
8.59995
7.29823
7.29823
7.29823
7.29823
6.87555
6.87555
6.87555
6.87555
7.375
7.375
7.375
7.375
7.297
7.297
7.297
7.297
7.585
7.585
7.585
7.585
10.868
10.868
10.868
10.868
6.91029
6.35614
6.91029
6.91029
6.35614
6.35614
6.91029
6.35614
7.71827
8.63437
8.63437
8.63437
8.63437
9.66492
9.66492
9.66492
9.66492
7.58648
7.58648
7.60127
7.60551
7.21339
7.85589
7.21339
7.85589
7.21339
7.85589
7.21339
7.85589
7.69894
8.65017
8.10657
6.71675
6.71675
6.71675
6.71675
6.91888
6.91888
6.91888
6.91888
9.03593
6.95526
7.02039
6.69822
6.84222
6.95526
6.83536
7.02039
6.85619
7.30034
7.30362
7.51675
7.50465
8.56067
8.56067
8.56067
8.56067
6.93433
6.93433
6.93433
6.93433
7.0893
7.0893
7.0893
7.0893
6.89384
6.89384
6.89384
6.89384
7.83236
7.87465
7.87465
7.87465
7.87465
6.86047
6.86047
6.86047
6.86047
8.51515
8.51515
8.51515
8.51515
8.32054
8.26706
7.95296
7.95296
7.95296
7.95296
6.87312
6.87312
6.87347
6.87347
8.70729
12.0556
7.25278
6.96825
6.70594
6.57474
6.94601
6.44678
7.71134
7.46553
7.93687
8.81378
8.81378
8.81378
8.81378
8.26971
8.26971
7.95267
7.95267
8.26971
8.26971
7.95267
7.95267
6.42236
8.89151
9.04685
6.91042
9.02682
9.02682
9.02537
9.02537
8.12279
8.13101
7.43387
7.01247
7.01247
7.01244
7.01247
7.46338
7.46338
7.46338
7.46338
8.39733
7.64992
7.64992
7.64992
7.64992
8.98946
8.98946
8.98946
8.98946
7.94639
7.94639
7.94639
7.94639
9.88342
7.22784
6.8798
8.29809
6.69783
7.65242
8.29809
6.8798
7.66063
6.67308
9.45879
9.45879
9.45879
9.45879
9.47116
9.47116
9.47116
9.47116
8.64339
7.91422
7.91422
7.91422
7.91422
9.943
9.943
9.943
9.943
7.074
11.8196
12.1164
7.27284
7.27284
7.27284
7.27284
10.8604
6.89071
7.79049
7.79049
7.79049
7.79049
8.12472
7.20924
7.20924
7.20924
7.20924
9.51358
9.51358
9.51358
9.51358
10.7304
10.7304
10.7304
10.7304
7.10161
7.10161
7.10161
7.10161
10.1252
8.18555
8.18555
8.18555
8.18555
9.15291
9.15291
9.15291
9.15291
8.52927
6.28869
6.28869
6.28869
6.28869
5.9945
7.54852
6.21161
6.46047
6.62369
6.62388
8.03163
8.03163
8.03163
8.03163
8.48549
8.46014
7.20999
7.20999
7.17074
7.0645
7.91037
7.91037
7.91037
7.91037
7.27739
7.27739
7.27739
7.27739
9.19086
6.4
6.4
6.4
6.4
7.47572
7.47572
7.47572
7.47572
9.6994
7.21723
7.21723
7.21723
7.21723
8.11613
8.11613
8.11613
8.11613
8.92563
8.92563
8.92563
8.92563
8.16495
9.1975
9.1975
9.1975
9.1975
7.94552
7.94552
7.94552
7.94552
7.67833
7.01368
6.39323
6.32078
7.48157
7.48157
7.48157
7.48157
7.08757
7.00247
6.4
6.4
6.4
6.4
6.63315
6.63315
6.63315
6.63315
6.81945
6.81945
6.82167
6.81945
8.61777
8.61777
8.61777
8.61777
9.59317
6.74729
6.74729
6.74729
6.74729
10.1456
8.18744
7.66641
7.66641
7.66641
7.66641
9.50798
9.50798
9.50798
9.50798
6.72652
6.86377
6.72652
6.86377
6.72652
6.86377
6.72652
6.86377
7.83922
7.83922
7.83922
7.83922
7.11485
7.11485
7.11485
7.11485
8.43296
8.43296
8.43296
8.43296
8.73701
8.73701
8.73701
8.73701
6.36898
6.41897
6.41897
6.36898
6.41897
6.36898
6.41897
6.36898
6.98524
6.98524
6.98524
6.98524
7.05046
7.05046
7.05046
7.05046
8.0404
8.0404
8.0404
8.0404
8.72208
8.34679
7.53642
7.53642
7.56189
7.56189
7.53642
7.56189
7.53642
7.56189
9.18934
7.62078
7.62078
7.62078
7.62078
8.80557
7.38604
7.38604
7.38604
7.38604
9.1151
9.1151
9.1151
9.1151
8.21096
8.21096
8.21096
8.21096
7.62125
7.62125
7.62125
7.62125
7.87954
7.87954
7.87954
7.87954
8.74055
8.55843
8.74055
8.55843
8.74055
8.55843
8.74055
8.55843
7.86847
8.74016
8.17278
8.37417
8.38472
8.38472
8.38472
8.38472
5.98913
5.93185
6.00359
5.92968
8.43134
8.43134
8.43134
8.43134
7.66664
7.66664
7.66089
7.66664
9.44057
8.74738
9.33499
9.33499
9.33499
9.33499
7.45077
7.45077
7.45077
7.45077
7.90556
8.31367
8.27856
8.27856
8.27856
8.27856
7.50185
7.50185
7.50185
7.50185
6.61761
7.30454
6.61761
7.30454
6.61761
6.61761
7.30454
7.30454
7.95245
7.95245
7.95245
7.95245
7.92872
7.92872
7.92872
7.92872
8.37045
7.89089
7.89089
7.89089
7.89089
7.59217
8.43755
8.43755
8.43755
8.43755
8.07976
8.13567
8.55661
8.82567
6.7426
6.7426
6.7426
6.7426
6.69464
6.69464
6.69464
6.69464
8.35482
8.84633
9.81806
9.81806
9.81806
9.81806
8.14449
6.89804
8.11617
8.11617
8.11617
8.11617
7.06851
7.75638
7.75638
7.75638
7.75638
8.72173
8.72256
8.73796
8.72254
8.241
7.38061
7.38061
7.38509
7.38061
9.79667
8.3915
8.3915
8.3915
8.3915
7.94876
7.94876
7.94876
7.94876
9.62575
9.14126
7.64774
7.87048
7.64774
7.87048
7.64774
7.64774
7.87048
7.87048
9.1319
8.49297
8.49297
8.49297
8.49297
8.25606
8.25606
8.25606
8.25606
9.54238
8.88484
8.88484
8.88484
8.88484
9.39753
9.2295
9.39753
9.23096
7.36043
7.36049
7.3937
7.3642
10.1576
7.99475
7.99475
7.99475
7.99475
8.82724
8.82724
8.89441
8.82228
8.24769
8.24769
9.14821
8.24769
9.14821
8.24769
9.14821
9.14821
6.61915
7.02674
6.61915
6.61915
7.02674
7.02674
6.61915
7.02674
8.3441
8.3441
8.3441
8.3441
9.13573
7.93787
7.93787
8.49689
8.08368
9.23912
8.74801
8.74801
8.74801
8.74801
7.7044
9.00867
9.51821
9.51821
9.52153
9.52016
7.93224
7.93224
7.9811
7.93224
8.75616
8.75616
8.75616
8.75616
8.85743
8.85743
8.85743
8.85743
7.87986
7.87986
7.86248
7.86248
9.50132
9.50132
9.50132
9.50132
9.22373
8.01521
8.38614
8.01521
8.38614
8.01521
8.38614
8.01521
8.38614
7.19554
7.39775
8.30708
8.30708
8.30708
8.30708
10.7143
9.9667
8.0785
8.0785
7.53032
7.41725
7.72534
7.72534
7.72534
7.72534
8.68038
9.39088
9.39088
9.39088
9.39088
9.07073
9.07073
9.07073
9.07073
7.68895
7.68895
7.72472
7.75497
7.68005
7.68005
7.68005
7.68005
8.41564
8.41564
8.41564
8.41564
7.82354
7.82354
7.82354
7.82354
7.4745
7.4745
7.4745
7.4745
7.0317
7.05253
7.0317
7.05253
7.0317
7.05253
7.0317
7.05253
6.47464
6.47464
6.47464
6.47464
8.54028
8.54028
8.54028
8.54028
7.64867
7.87683
8.38947
8.38947
8.38947
8.38947
7.80962
7.80962
7.80962
7.80962
7.36042
7.36042
7.36042
7.36042
7.31684
7.6069
7.31684
7.6069
7.31684
7.6069
7.31684
7.6069
9.27923
9.62593
8.26274
8.26274
8.26274
8.26274
8.66565
7.57532
8.66565
7.57532
8.66565
7.57532
8.66565
7.57532
7.09631
7.09804
8.07799
7.71545
8.07799
7.71545
8.07799
7.71545
8.07799
7.71545
9.20833
7.94679
6.99981
6.99981
6.99981
6.99981
8.14642
8.14642
8.17936
8.14642
8.49075
8.49075
8.5049
8.5049
7.4555
7.4555
7.4555
7.4555
10.3856
10.383
8.05658
8.05658
8.05658
8.05658
7.80781
7.80781
7.80781
7.80781
7.1748
7.23994
7.06752
6.99713
7.05985
7.00402
7.06752
6.99713
7.63677
7.63677
7.63677
7.63677
6.7538
6.7538
6.75189
6.7538
7.89662
7.89662
7.89662
7.89662
9.78148
9.78148
9.74075
9.78148
8.11003
8.12659
6.4398
6.4398
6.4398
6.4398
7.74562
11.4862
12.2681
8.73247
8.5188
8.73247
8.5188
7.30734
9.263
7.33084
9.23278
8.11008
8.11008
8.11008
8.11008
8.49531
8.49531
8.49531
8.49531
8.17606
7.20062
7.99997
7.91276
8.49531
8.82768
8.49531
9.0043
8.88426
8.82768
9.02824
8.81313
10.4687
8.68609
9.81968
8.32653
8.32653
8.32653
8.32653
11.225
11.0949
10.9577
10.4255
8.53479
8.99891
8.99891
8.99891
8.99891
8.01205
8.82071
8.8274
8.91816
6.73826
8.91338
6.73826
8.91338
6.73826
8.91338
6.73826
8.91338
8.81315
8.81315
8.81315
8.81315
6.77933
8.77312
9.20959
9.23467
7.50647
7.50647
7.50647
7.50647
10.5683
7.39115
9.43057
8.46542
10.0062
10.0062
10.0062
10.0062
8.81118
10.18
9.12738
9.12738
9.12738
9.12738
8.41876
7.73084
7.7382
6.648
6.648
6.648
6.648
8.35019
10.227
9.89821
8.72675
8.72675
8.72675
8.72675
8.24354
8.24354
8.24354
8.24354
9.71312
6.51758
8.87117
8.87117
8.87117
8.87117
7.28809
7.28809
7.28809
7.28809
8.9243
8.64464
10.8253
10.8213
10.6651
10.6522
7.72024
10.3105
10.3105
10.3105
10.3105
8.93224
8.93224
8.93224
8.93224
7.17687
6.85155
6.85155
6.85155
6.85155
7.25637
7.25829
7.25632
7.33125
8.28027
8.31139
8.31139
8.31139
8.31139
9.0075
8.55733
8.55733
8.55733
8.55733
8.17705
8.72331
9.02917
7.31466
8.09978
7.31466
8.09978
7.8938
7.77297
7.96262
8.09661
8.74628
8.74628
8.74628
8.74628
8.79061
7.62908
7.62908
7.45997
7.45997
7.62908
7.45997
7.62908
7.45997
8.25177
8.25177
8.25177
8.25177
7.19071
9.45975
11.0839
8.1099
8.9805
8.9805
8.9805
8.9805
8.43413
8.43413
8.43413
8.43413
6.42567
6.51658
9.46906
9.46906
9.46906
9.46906
9.61341
9.61341
9.61341
9.61341
10.9066
10.9066
10.9066
10.9066
7.48103
7.48103
7.49076
7.48103
8.22965
7.51991
7.51991
7.51991
7.51991
7.79978
7.79978
7.79978
7.79978
9.29887
9.49139
9.49139
9.49139
9.49139
7.96984
7.96984
8.39691
7.96984
8.39691
8.39691
7.96984
8.39691
7.88084
7.88084
7.88084
7.88084
11.5989
6.56684
6.56684
6.56684
6.56684
6.86911
8.47255
8.47255
8.47255
8.47255
8.81191
8.81191
8.81191
8.81191
8.70849
8.70849
8.70849
8.70849
6.74666
10.609
7.32649
7.32649
7.32649
7.32649
8.79956
8.94156
8.24794
8.32997
7.02342
7.02342
7.02342
7.02342
7.38251
7.38251
7.38251
7.38251
9.33464
9.33464
9.68485
9.68239
7.8726
7.8726
7.8726
7.8726
7.63003
7.63003
7.63017
7.63017
8.27089
8.27089
8.27089
8.27089
8.37798
8.18415
8.0924
8.0924
8.0924
8.0924
8.87782
8.87782
8.87782
8.87782
9.03858
8.06132
8.06132
8.06132
8.06132
7.10439
7.75553
7.75553
7.75553
7.75553
8.181
9.31392
7.05197
9.31392
9.31392
7.05197
7.05197
9.31392
7.05197
8.92533
8.92533
8.92533
8.92533
6.90474
6.90474
6.90474
6.90474
8.97901
8.97901
8.97901
8.97901
8.28566
6.84711
7.8534
6.99989
6.97241
6.84711
7.8534
6.96032
7.4144
6.86963
6.86963
6.86963
6.86963
6.59083
6.59083
6.59083
6.59083
8.9876
8.9876
8.9876
8.9876
8.28989
8.28989
8.28989
8.28989
6.83591
7.12791
6.83591
7.12791
6.83591
7.12791
6.83591
7.12791
7.95816
8.22361
7.95816
8.22361
8.25524
8.3276
7.95816
8.22361
7.16913
7.16913
7.16913
7.16913
7.45455
7.45455
7.45455
7.45455
10.2695
8.87489
8.87489
8.87489
8.87489
9.03818
9.03818
9.03818
9.03818
7.72544
7.84243
8.29978
9.17511
9.75105
9.34308
9.3561
11.4989
11.4989
11.4989
11.4989
8.54472
8.54472
8.54472
8.54472
10.1734
7.67712
6.71011
6.98248
6.98248
6.98248
6.98248
10.0193
10.0193
10.0193
10.0193
8.27046
8.32673
11.3858
11.3858
11.3858
11.3858
8.7302
8.70751
8.7302
8.7302
8.70751
8.70751
8.7302
8.70751
8.13699
8.13699
7.32453
8.12302
9.93435
11.6444
11.6444
11.6444
11.6444
8.76601
8.76601
8.76601
8.76601
7.8046
7.8046
7.8046
7.8046
8.53445
8.39392
7.23302
7.23302
7.23302
7.23302
7.94635
8.72174
8.72174
8.72174
8.72174
8.94295
8.73492
7.85256
10.4801
10.4801
10.5001
10.5001
7.65864
7.65864
7.65864
7.65864
7.86194
7.84299
8.03685
8.03685
8.03685
8.03685
8.46237
6.6175
7.32917
7.32917
7.32917
7.32917
7.8393
7.8393
7.8393
7.8393
7.89268
8.31632
9.76784
9.76782
9.75277
9.79447
7.68455
7.83453
7.8832
7.8832
7.8832
7.8832
9.29973
7.96156
7.9615
9.05702
8.76812
7.35804
7.35804
7.35804
7.35804
7.8591
9.57659
6.73251
6.73251
6.73299
6.73251
8.43546
8.73424
8.73424
8.43546
8.43546
8.73424
8.43546
8.73424
8.78881
9.7686
9.7686
9.73927
9.7686
9.45703
9.26143
8.28416
8.28416
8.28416
8.28416
9.19657
8.92916
8.92916
8.92916
8.92916
8.41336
9.05239
9.05239
9.05239
9.05239
8.55216
8.55216
8.45342
8.63494
8.58671
8.58671
8.58671
8.58671
9.55845
9.55845
9.55845
9.55845
8.53562
8.86537
9.47453
7.68857
7.68857
7.68857
7.68857
8.03736
8.61948
9.08293
8.73729
8.73729
8.73729
8.73729
9.24458
9.23981
9.50163
9.51203
7.00694
7.00694
7.00694
7.00694
8.19163
8.19163
8.19163
8.19163
8.4228
9.2132
9.56438
7.61151
9.531
7.61151
9.531
7.61151
9.531
7.61151
9.531
7.75392
7.75392
7.72882
7.76583
10.9901
10.9901
10.9901
10.9901
7.78381
7.78381
7.78381
7.78381
8.50649
6.85887
8.50649
8.50649
6.85887
6.85887
8.50649
6.85887
9.73768
9.73768
9.73768
9.73768
8.14076
8.14076
8.14076
8.14076
9.26274
9.26274
9.26389
9.26389
8.53139
8.13533
7.93821
6.89167
6.89167
6.81793
7.38029
8.41267
8.41267
8.41267
8.41267
9.8991
9.8991
9.89885
9.89885
8.0446
8.0446
8.0446
8.0446
7.94685
7.94685
7.94685
7.94685
7.94304
8.57811
7.93123
8.0655
7.85072
8.00941
8.22912
11.2545
11.2545
11.2545
11.2545
9.93637
9.93637
9.93637
9.93637
7.51379
8.8204
7.11728
7.11728
7.11728
7.11728
8.83539
8.83539
8.83539
8.83539
8.90083
9.55247
8.90083
9.55247
8.90083
9.55247
8.90083
9.55247
8.36909
8.89794
8.41968
7.85223
7.82684
7.19813
7.19813
7.19813
7.19813
7.13625
7.97663
7.97663
7.97663
7.97663
8.45778
8.45778
9.41254
9.09809
7.2305
8.2655
7.2305
8.2655
8.2655
7.2305
7.2305
8.2655
9.48939
6.58594
6.82088
10.0073
10.0073
10.0073
10.0073
7.72232
10.2961
10.2961
10.2961
10.2961
8.43803
8.43803
9.25767
9.25767
8.43803
9.25767
8.43803
9.25767
8.48745
8.48745
8.48745
8.48745
8.17165
8.17165
8.17165
8.17165
9.15351
8.84911
8.84911
8.84911
8.84911
7.71278
7.71444
8.4971
8.4554
9.04828
9.63226
9.04828
9.49975
8.51275
8.51275
8.51275
8.51275
8.87307
8.87307
8.87307
8.87307
9.58352
9.58352
9.58352
9.58352
8.66788
8.33795
8.31361
8.88548
8.88548
8.88548
8.88548
8.97343
8.90004
9.21125
8.36098
8.35397
8.3539
9.49241
9.09548
9.49241
9.09548
9.49241
9.09548
9.49241
9.09548
8.00908
9.59607
9.59506
9.59473
10.5925
10.5925
10.5925
10.5925
8.6794
8.20078
8.20078
8.20078
8.20078
8.05412
8.05412
8.05412
8.05412
7.63235
7.63235
8.53327
8.53327
8.53327
8.53327
7.63235
7.63235
7.28038
8.00611
8.00611
7.38567
7.38567
9.35271
9.35272
9.63229
9.49922
8.51151
8.25717
8.21272
8.1417
8.1417
8.1417
8.1417
7.32334
7.32334
7.32224
7.32334
7.7808
7.7808
7.7808
7.7808
9.8018
9.8018
9.8018
9.8018
7.97216
7.97216
7.97216
7.97216
9.13422
8.55128
11.1059
11.1059
11.1059
11.1059
7.26978
7.26978
9.78754
9.78754
7.26978
7.26978
9.78754
9.78754
8.16854
8.16854
7.64103
8.15581
9.93473
9.93473
9.93473
9.93473
8.76012
8.76012
8.76012
8.76012
8.16635
8.16635
8.16635
8.16635
8.93816
8.50046
8.03151
8.03151
8.03151
8.03151
8.93373
8.93373
8.93373
8.93373
10.1418
10.1418
10.1418
10.1418
10.5528
7.51967
7.51967
7.69743
7.69743
8.04996
8.04996
8.04996
8.04996
8.13595
10.5674
9.56909
9.54021
9.51827
9.52965
8.56008
9.06528
9.06528
9.06528
9.06528
7.93075
8.12535
9.28363
7.54881
8.40931
8.40931
8.40931
8.40931
8.76259
8.11244
8.34677
8.80124
7.65664
7.65664
7.65664
7.65664
8.23425
8.71856
7.99342
10.0774
10.0774
10.0774
10.0774
8.37271
8.37271
8.37271
8.37271
9.66168
9.66168
9.66168
9.66168
8.3476
8.61988
8.11528
7.34666
7.34666
7.34666
7.34666
8.67246
8.67246
8.67246
8.67246
10.546
10.546
10.546
10.546
10.7906
10.0541
8.77226
8.77226
8.77226
8.77226
6.99844
9.73508
9.76649
9.79356
10.0943
9.45052
7.91715
7.91715
7.91715
7.91715
10.4817
10.4817
10.4632
10.5002
7.51676
7.51676
7.51676
7.51676
8.38759
8.38759
8.38759
8.38759
7.77064
7.77064
7.77064
7.77064
8.46992
8.46992
8.46992
8.46992
9.47023
9.47023
9.47023
9.47023
8.26724
8.26724
8.26724
8.26724
8.27296
8.69952
7.498
9.12419
9.12419
9.12419
9.12419
10.1582
10.1582
10.1582
10.1582
8.62224
8.62224
8.62224
8.62224
8.86839
8.86839
8.86839
8.86839
9.75864
9.23922
8.21685
8.97174
8.97174
8.97174
8.97174
9.16872
9.06441
7.90546
8.10602
8.10602
8.10602
8.10602
7.68932
8.38143
8.38143
8.38143
8.38143
8.8128
8.5699
8.5699
8.5699
8.5699
8.3147
8.1895
8.17203
8.19465
8.18384
8.19441
8.59744
8.79636
8.59718
8.69664
8.50735
10.6274
10.6274
10.6274
10.6274
9.04375
9.04375
9.04375
9.04375
10.7151
10.7151
10.0693
10.0693
10.7151
10.7151
10.0693
10.0693
8.48192
7.62133
8.46618
8.46618
8.46618
8.46618
7.36718
7.43314
9.89811
8.47556
8.3428
8.16631
8.16631
8.16452
8.16425
9.44428
9.44428
7.62834
7.91302
8.73628
9.88965
9.57422
7.96461
8.04794
7.96461
7.9647
8.04588
8.04794
7.96797
8.04804
9.98252
7.40753
9.98252
9.609
7.40753
7.72504
9.88364
7.48672
8.33947
8.33947
8.33947
8.33947
8.72256
9.99743
9.05024
9.86309
8.98032
9.47221
9.47221
9.47221
9.47221
8.34631
8.05735
8.23773
8.23773
8.23773
8.23773
8.04765
9.78987
9.78987
9.78987
9.78987
8.69782
8.69782
8.58906
8.63511
9.19318
9.19318
9.18538
9.18296
8.54204
7.87786
8.76514
9.45616
8.76514
9.45616
9.45616
8.76514
8.76514
9.45616
9.17132
8.95012
9.1717
8.94913
9.17156
8.94913
8.64614
8.64312
12.2933
10.1519
10.8326
10.5769
8.96848
8.96848
8.28286
8.28286
8.96848
8.28286
8.96848
8.28286
10.4065
10.4065
10.4065
10.4065
7.18017
7.99451
7.70217
7.99451
7.70217
7.99451
7.70217
7.99451
7.70217
8.38592
8.29564
8.38592
8.29564
8.38592
8.29564
8.38592
8.29564
9.54025
9.54025
9.54025
9.54025
8.21143
8.21143
7.52769
7.52769
8.21143
7.52769
8.21143
7.52769
9.85938
9.85938
9.85938
9.85938
6.97994
8.84265
6.97999
8.84252
10.1058
9.46456
8.49456
8.49456
8.49456
8.49456
7.53722
8.67212
7.53722
7.53722
8.67212
8.67212
7.53722
8.67212
8.20543
8.20543
8.11553
8.11553
9.07549
8.75126
8.75126
8.75126
8.75126
7.97177
7.97177
7.97177
7.97177
8.15983
7.12648
8.8849
7.0623
9.31979
9.21733
9.16348
8.76146
8.76146
8.76146
8.76146
10.919
10.919
10.919
10.919
11.1546
11.1546
11.1546
11.1546
7.2837
7.75538
8.82167
8.82167
8.58717
8.56402
9.01614
9.01614
9.53192
9.45191
9.11178
9.11909
9.11909
9.11909
9.11909
9.73492
9.73492
9.73492
9.73492
8.81906
10.3337
8.82928
8.92086
10.5287
9.72658
9.68475
9.68246
9.64645
9.62351
10.3615
10.3615
10.3615
10.3615
10.1285
10.1285
10.1285
10.1285
7.38778
7.38778
7.38778
7.38778
9.73662
9.73662
9.73662
9.73662
7.74679
11.2285
8.19412
9.3454
9.3454
9.3454
9.3454
8.01776
9.72156
7.46401
7.46401
8.59898
8.59898
8.59898
8.59898
7.46401
7.46401
12.1516
12.1516
12.1516
12.1516
8.4768
8.43383
10.8514
10.8514
10.8514
10.8514
10.8514
10.8514
10.8514
10.8514
11.1998
11.1008
10.9038
10.5876
9.01404
9.01404
9.01404
9.01404
8.98049
8.98049
8.98049
8.98049
11.4204
11.4204
11.4204
11.4204
7.99621
9.51893
9.51893
9.51893
9.51893
8.06173
8.06173
8.06173
8.06173
8.48098
8.46209
8.5055
8.46229
7.94576
8.20686
8.96439
8.96439
8.96439
8.96439
9.13167
9.13167
9.13167
9.13167
8.70809
9.2515
9.05208
9.47982
9.47982
9.47982
9.47982
11.0961
11.0961
11.0961
11.0961
8.02739
7.99789
8.16706
9.2304
8.3148
8.2963
8.2963
8.2963
8.2963
8.89188
10.9385
10.9385
10.9385
10.9385
8.51462
7.69627
8.26104
8.54323
8.48913
9.08406
9.6155
9.6155
9.6155
9.6155
10.4418
10.4418
10.4418
10.4418
11.3271
11.3271
11.3271
11.3271
8.97764
8.23657
8.23657
8.21507
8.21507
8.23657
8.21507
8.23657
8.21507
8.49204
8.49204
8.44659
8.45026
7.79586
10.0776
10.0776
10.0776
10.0776
7.85159
8.93109
8.93109
8.93109
8.93109
9.30025
12.5808
12.5808
12.5808
12.5808
12.5808
12.5808
12.5808
12.5808
7.43297
7.43297
7.43297
7.43297
9.26772
9.26772
9.26772
9.26772
9.03443
8.72557
8.4498
9.84773
9.6141
7.13091
9.0964
7.84668
8.67679
9.17791
8.53394
8.53394
7.93448
7.93448
8.4027
8.77306
8.4027
8.77306
8.40274
8.774
8.40274
8.774
7.39498
9.41214
9.41214
9.41214
9.41214
9.64547
9.50669
9.64547
9.50669
9.51025
9.63912
9.51088
9.63799
9.28626
9.28626
9.28626
9.28626
7.54413
10.2975
7.54413
7.54413
10.2975
10.2975
7.54413
10.2975
10.6625
11.0913
9.1905
9.1905
9.45138
9.44574
8.39318
9.42186
9.42186
9.42186
9.42186
9.33832
8.61283
8.37964
9.73429
8.3774
9.73563
9.02428
10.7721
9.39996
9.27849
8.57222
8.4924
8.4924
8.4924
8.4924
8.4072
8.64712
8.4628
8.64712
8.4628
8.64712
8.4628
8.64712
8.4628
7.42799
7.42799
7.42799
7.42799
11.1362
11.1362
10.9833
10.9833
11.1362
11.1362
10.9833
10.9833
8.4635
8.45314
8.4635
8.45314
8.4635
8.45314
8.4635
8.45314
8.51373
9.49538
9.49538
9.49538
9.49538
8.2085
9.24033
8.19908
9.21118
8.20803
9.26455
8.20687
9.2109
9.08784
9.08784
9.08784
9.08784
7.88453
9.52444
7.88453
9.52444
10.1988
7.81492
10.1988
7.81492
10.8168
10.8168
10.8168
10.8168
8.34646
10.3342
9.12411
9.27699
9.27699
9.27699
9.27699
8.51544
8.51544
8.51544
8.51544
11.4934
10.9336
10.9336
10.9336
10.9336
9.88498
9.62876
9.0363
8.3061
8.3061
8.3061
8.3061
8.90513
8.43966
9.26307
8.93788
8.93788
8.93788
8.93788
10.3651
8.94286
8.94286
8.93802
8.94286
11.5521
10.1964
10.1964
10.1964
10.1964
10.6467
10.6467
10.6467
10.6467
9.7252
9.7252
9.7252
9.7252
8.04738
8.04738
8.04738
8.04738
9.3398
9.10512
9.62068
8.08151
8.94205
8.59323
10.8486
9.76519
9.25065
8.43677
9.25065
8.43677
9.25065
8.43677
9.25065
8.43677
8.63832
8.85071
8.63832
8.85072
8.63859
8.85134
8.63867
8.85008
8.84393
8.84393
8.81018
8.84393
7.8117
10.0723
8.49382
8.49382
8.48244
8.49382
8.62616
8.08608
8.82125
8.82125
8.82125
8.82125
8.59758
8.59764
9.01042
8.59776
9.58163
10.3897
10.3897
10.3897
10.3897
9.25023
9.24947
8.94186
9.24946
9.40231
9.22192
9.11519
9.11519
9.11519
9.11519
8.67799
8.67799
8.67799
8.67799
9.29617
9.49823
9.49823
9.29617
11.5681
11.5681
11.5681
9.29617
11.5681
11.5681
9.29617
11.5681
11.5681
11.5681
9.49823
9.49823
8.90794
8.90794
8.90794
8.90794
10.0384
10.0384
10.0384
10.0384
9.1365
9.1365
9.11212
9.1365
8.30775
8.07491
9.52791
9.03897
8.05409
7.81227
10.9853
7.45238
7.60669
7.45241
7.60674
9.04578
8.79702
9.04578
8.79702
9.04578
8.79702
9.04578
8.79702
9.83194
9.83194
9.9788
9.97975
11.0198
9.72917
10.913
9.79615
9.56408
10.0711
11.4626
11.4626
9.29872
9.29872
11.4626
11.4626
9.29872
9.29872
8.7305
9.78241
10.0928
11.4789
9.56753
9.06714
8.33825
9.06714
8.33825
8.30532
9.07542
9.04344
8.29944
10.6121
9.78092
9.78092
9.78092
9.78092
8.53679
8.49359
9.50413
11.9459
9.84692
8.81257
9.56024
8.64166
8.41586
9.49194
10.0808
9.36872
9.09068
11.3599
11.7447
9.41824
11.8346
9.80235
10.6357
9.40575
8.08117
9.44897
9.44897
9.44897
9.44897
11.1132
9.59856
8.72654
9.29884
9.90091
11.3387
9.27462
11.1768
11.3439
10.9825
10.5314
)
;

boundaryField
{
    frontAndBack
    {
        type            zeroGradient;
    }
    bottom
    {
        type            zeroGradient;
    }
    right
    {
        type            zeroGradient;
    }
    top
    {
        type            zeroGradient;
    }
    left
    {
        type            zeroGradient;
    }
}


// ************************************************************************* //
