/*--------------------------------*- C++ -*----------------------------------*\
| =========                 |                                                 |
| \\      /  F ield         | OpenFOAM: The Open Source CFD Toolbox           |
|  \\    /   O peration     | Version:  2106                                  |
|   \\  /    A nd           | Website:  www.openfoam.com                      |
|    \\/     M anipulation  |                                                 |
\*---------------------------------------------------------------------------*/
FoamFile
{
    version     2.0;
    format      ascii;
    arch        "LSB;label=32;scalar=64";
    class       volScalarField;
    location    "constant";
    object      cellVolumeRatio;
}
// * * * * * * * * * * * * * * * * * * * * * * * * * * * * * * * * * * * * * //

dimensions      [0 0 0 0 0 0 0];

internalField   nonuniform List<scalar> 
2658
(
0.680699
0.78846
0.647818
0.647818
0.647818
0.647818
0.717444
0.717444
0.717444
0.717444
0.717444
0.717444
0.717444
0.717444
0.784242
0.755092
0.755092
0.747538
0.755656
0.557701
0.557701
0.557701
0.557701
0.758973
0.624409
0.808252
0.747993
0.932081
0.932081
0.932081
0.932081
0.70248
0.70248
0.698071
0.698071
0.73523
0.766266
0.766266
0.766266
0.766266
0.693904
0.693904
0.693904
0.693904
0.857606
0.57133
0.534216
0.572306
0.572306
0.572306
0.572306
0.667814
0.655808
0.62837
0.654895
0.778981
0.778981
0.778981
0.778981
0.589261
0.589261
0.589261
0.589261
0.795499
0.795499
0.795499
0.795499
0.647818
0.647818
0.647818
0.647818
0.831946
0.711653
0.831946
0.831946
0.711653
0.711653
0.831946
0.711653
0.638521
0.861566
0.861566
0.861566
0.861566
0.857237
0.857237
0.857237
0.857237
0.703928
0.703928
0.697047
0.678439
0.61762
0.796459
0.61762
0.796459
0.61762
0.796459
0.61762
0.796459
0.741769
0.691476
0.864367
0.649881
0.649881
0.649881
0.649881
0.688107
0.688107
0.688107
0.688107
0.710758
0.790491
0.804931
0.648986
0.784428
0.80307
0.811102
0.803436
0.786032
0.827666
0.739552
0.635956
0.61205
0.85253
0.85253
0.85253
0.85253
0.75761
0.75761
0.75761
0.75761
0.793675
0.793675
0.793675
0.793675
0.725567
0.725567
0.725567
0.725567
0.649686
0.684075
0.684075
0.684075
0.684075
0.721014
0.721014
0.721014
0.721014
0.77268
0.77268
0.77268
0.77268
0.608671
0.758914
0.801604
0.801604
0.801604
0.801604
0.704238
0.704238
0.704828
0.705014
0.631555
0.649686
0.832956
0.793898
0.766197
0.741621
0.682982
0.686579
0.692264
0.696422
0.752392
0.953677
0.953677
0.953677
0.953677
0.632029
0.632029
0.510694
0.510694
0.632029
0.632029
0.510694
0.510694
0.710758
0.820507
0.761431
0.836122
0.703928
0.703928
0.697047
0.678439
0.850744
0.888922
0.70499
0.887958
0.887958
0.887773
0.887958
0.806411
0.806411
0.806411
0.806411
0.773205
0.767957
0.767957
0.767957
0.767957
0.896475
0.896475
0.896475
0.896475
0.639474
0.639474
0.639474
0.639474
0.808252
0.888922
0.59225
0.708207
0.588307
0.837437
0.717093
0.573018
0.743606
0.623552
0.731477
0.731477
0.731477
0.731477
0.649881
0.649881
0.649881
0.649881
0.662867
0.797145
0.797145
0.797145
0.797145
0.768553
0.768553
0.768553
0.768553
0.729324
0.635956
0.61205
0.741084
0.741084
0.741084
0.741084
0.773205
0.78254
0.893057
0.893057
0.893057
0.893057
0.665063
0.671853
0.671853
0.671853
0.671853
0.835268
0.835268
0.835268
0.835268
0.671853
0.671853
0.671853
0.671853
0.800527
0.800527
0.800527
0.800527
0.678198
0.886566
0.886566
0.886566
0.886566
0.75761
0.75761
0.75761
0.75761
0.712631
0.75269
0.75269
0.75269
0.75269
0.75433
0.684036
0.763503
0.732009
0.680188
0.678358
0.797145
0.797145
0.797145
0.797145
0.7031
0.724691
0.696498
0.696498
0.685752
0.666602
0.772938
0.772938
0.835981
0.835981
0.759073
0.759073
0.759073
0.759073
0.896651
0.846434
0.846434
0.846434
0.846434
0.786057
0.786057
0.786057
0.786057
0.729324
0.664903
0.664903
0.664903
0.664903
0.758392
0.758392
0.758392
0.758392
0.795499
0.795499
0.795499
0.795499
0.70499
0.82468
0.82468
0.82468
0.82468
0.84266
0.84266
0.84266
0.84266
0.729099
0.705417
0.602417
0.582333
0.887958
0.887958
0.887773
0.887958
0.706897
0.755231
0.773081
0.773081
0.773081
0.773081
0.64017
0.64017
0.64017
0.64017
0.840558
0.840558
0.840264
0.840558
0.921732
0.921732
0.921732
0.921732
0.817115
0.713534
0.713534
0.713534
0.713534
0.8526
0.861815
0.76601
0.76601
0.76601
0.76601
0.695893
0.695893
0.695893
0.695893
0.854836
0.793366
0.854836
0.793366
0.854836
0.793366
0.854836
0.793366
0.608778
0.608778
0.608778
0.608778
0.78192
0.78192
0.78192
0.78192
0.797831
0.797831
0.797831
0.797831
0.773513
0.773513
0.773513
0.773513
0.707751
0.734951
0.827816
0.707751
0.734951
0.707751
0.778468
0.707751
0.783196
0.783196
0.783196
0.783196
0.804695
0.804695
0.804695
0.804695
0.822653
0.822653
0.822653
0.822653
0.807162
0.676229
0.911444
0.911444
0.823796
0.823796
0.911444
0.823796
0.911444
0.823796
0.865557
0.786291
0.786291
0.786291
0.786291
0.78254
0.767957
0.767957
0.767957
0.767957
0.683708
0.683708
0.683708
0.683708
0.739017
0.739017
0.739017
0.739017
0.767205
0.767205
0.767205
0.767205
0.721014
0.721014
0.721014
0.721014
0.895086
0.859943
0.895086
0.859943
0.895086
0.859943
0.895086
0.859943
0.73523
0.752567
0.663021
0.766081
0.758392
0.758392
0.758392
0.758392
0.647854
0.641988
0.631848
0.623388
0.759073
0.759073
0.759073
0.759073
0.784825
0.784825
0.786598
0.784825
0.718055
0.683314
0.78503
0.78503
0.78503
0.78503
0.744535
0.744535
0.744535
0.744535
0.766796
0.771067
0.773081
0.773081
0.773081
0.773081
0.844045
0.844046
0.844261
0.844035
0.582704
0.574703
0.582704
0.574703
0.582704
0.582704
0.574703
0.574703
0.77901
0.77901
0.77901
0.77901
0.755745
0.755745
0.755745
0.755745
0.766197
0.766266
0.766266
0.766266
0.766266
0.757694
0.812864
0.812864
0.812864
0.812864
0.720623
0.581221
0.693167
0.551298
0.583335
0.583335
0.583335
0.583335
0.647937
0.647937
0.647937
0.647937
0.638521
0.683111
0.840905
0.840905
0.840905
0.840905
0.856494
0.738158
0.800169
0.800169
0.800169
0.800169
0.609413
0.680595
0.680595
0.681029
0.681541
0.804931
0.784428
0.803436
0.786032
0.741596
0.745943
0.744805
0.745286
0.744503
0.854798
0.707366
0.707366
0.707366
0.707366
0.837716
0.837716
0.837716
0.837716
0.788916
0.849261
0.800169
0.782873
0.800169
0.782873
0.800169
0.800169
0.782873
0.782873
0.931321
0.632334
0.632334
0.632334
0.632334
0.829595
0.829595
0.829595
0.829595
0.956983
0.836057
0.836057
0.836057
0.836057
0.772158
0.786423
0.772152
0.792297
0.751097
0.751104
0.754568
0.742435
0.713199
0.866854
0.866854
0.866854
0.866854
0.755092
0.755092
0.747538
0.755656
0.794003
0.794003
0.777741
0.794003
0.777741
0.794003
0.777741
0.777741
0.77505
0.828129
0.77505
0.77505
0.828129
0.828129
0.77505
0.828129
0.882618
0.882618
0.882618
0.882618
0.680699
0.8008
0.800804
0.852485
0.801514
0.762092
0.698971
0.698971
0.698971
0.698971
0.886982
0.773348
0.7733
0.773306
0.776525
0.773537
0.810945
0.810945
0.819352
0.810945
0.583335
0.583335
0.583335
0.583335
0.647937
0.647937
0.647937
0.647937
0.751891
0.751891
0.748803
0.748803
0.725567
0.725567
0.725567
0.725567
0.789765
0.905708
0.882618
0.905708
0.882618
0.905708
0.882618
0.905708
0.882618
0.773809
0.931355
0.896475
0.896475
0.896475
0.896475
0.752567
0.793197
0.677807
0.685756
0.687218
0.711454
0.844141
0.844141
0.844141
0.844141
0.693474
0.811559
0.811559
0.811559
0.811559
0.691479
0.691479
0.691479
0.691479
0.85807
0.85807
0.865828
0.832217
0.744877
0.744877
0.744877
0.744877
0.747759
0.747759
0.747759
0.747759
0.836151
0.836151
0.836151
0.836151
0.793366
0.793366
0.793366
0.793366
0.7132
0.72039
0.7132
0.72039
0.7132
0.72039
0.7132
0.72039
0.772598
0.772598
0.772598
0.772598
0.77505
0.77505
0.77505
0.77505
0.623458
0.789378
0.822653
0.822653
0.822653
0.822653
0.615724
0.615724
0.615724
0.615724
0.925554
0.925554
0.925554
0.925554
0.711352
0.702595
0.711352
0.702595
0.711352
0.702595
0.711352
0.702595
0.697772
0.822026
0.847205
0.847205
0.847205
0.847205
0.729668
0.729668
0.729668
0.729668
0.729668
0.729668
0.729668
0.729668
0.683281
0.683623
0.723118
0.958711
0.723118
0.958711
0.723118
0.958711
0.723118
0.958711
0.712808
0.572406
0.791926
0.791926
0.791926
0.791926
0.75022
0.750501
0.764454
0.76241
0.824399
0.824399
0.815916
0.815916
0.729905
0.729905
0.729905
0.729905
0.683281
0.683623
0.862684
0.862684
0.862684
0.862684
0.682037
0.682037
0.682037
0.682037
0.792452
0.818279
0.67132
0.919607
0.681533
0.883782
0.650009
0.919607
0.599473
0.599473
0.599473
0.599473
0.581832
0.581832
0.58168
0.581832
0.78254
0.78254
0.78254
0.78254
0.692564
0.692647
0.659203
0.692639
0.908758
0.940073
0.875855
0.875855
0.875855
0.875855
0.632198
0.656519
0.623458
0.855404
0.646772
0.855664
0.646772
0.788874
0.730689
0.794002
0.726099
0.737943
0.737943
0.737943
0.737943
0.849005
0.849005
0.849005
0.849005
0.758973
0.68227
0.862138
0.822026
0.837182
0.837182
0.837182
0.85991
0.85991
0.837182
0.845002
0.845002
0.624409
0.665063
0.762092
0.867331
0.867331
0.867331
0.867331
0.677807
0.685756
0.687218
0.711454
0.610155
0.707751
0.707751
0.707751
0.707751
0.79795
0.762838
0.74481
0.731025
0.755971
0.755971
0.755971
0.755971
0.755971
0.755971
0.755971
0.755971
0.682454
0.682454
0.682454
0.682454
0.859358
0.811566
0.680188
0.678358
0.688482
0.688482
0.688482
0.688482
0.582333
0.844153
0.791492
0.856392
0.849005
0.849005
0.849005
0.849005
0.77303
0.602417
0.615724
0.615724
0.615724
0.615724
0.906222
0.930867
0.717875
0.724077
0.724077
0.724077
0.724077
0.785262
0.880447
0.814045
0.759013
0.759013
0.759013
0.759013
0.759639
0.759639
0.759639
0.759639
0.77261
0.664038
0.800527
0.800527
0.800527
0.800527
0.813004
0.813004
0.813004
0.813004
0.908758
0.892583
0.75022
0.750501
0.764454
0.76241
0.780744
0.744877
0.744877
0.744877
0.744877
0.793675
0.793675
0.793675
0.793675
0.718901
0.657427
0.657427
0.657427
0.657427
0.721599
0.741985
0.721598
0.771774
0.758914
0.719109
0.719109
0.719109
0.719109
0.683111
0.644233
0.644233
0.644233
0.644233
0.927028
0.934169
0.960786
0.787601
0.838532
0.814216
0.838532
0.642124
0.88706
0.784349
0.929672
0.805979
0.805979
0.805979
0.805979
0.718055
0.69283
0.69283
0.722233
0.722233
0.69283
0.722233
0.69283
0.722233
0.889314
0.889314
0.889314
0.889314
0.6774
0.712808
0.572406
0.942881
0.871354
0.871354
0.871354
0.871354
0.92213
0.92213
0.92213
0.92213
0.774199
0.861812
0.640793
0.640793
0.640793
0.640793
0.77901
0.77901
0.77901
0.77901
0.800137
0.800137
0.800137
0.800137
0.774953
0.777644
0.773801
0.777287
0.612591
0.704238
0.704238
0.704238
0.704238
0.860573
0.860573
0.860573
0.860573
0.773809
0.901705
0.901705
0.901705
0.901705
0.785478
0.785478
0.85951
0.785478
0.85951
0.85951
0.785478
0.85951
0.919873
0.919873
0.919873
0.919873
0.609413
0.831287
0.831287
0.831287
0.831287
0.569422
0.724787
0.724787
0.724787
0.724787
0.557701
0.557701
0.557701
0.557701
0.753876
0.753876
0.753876
0.753876
0.847248
0.631555
0.833762
0.833762
0.833762
0.833762
0.729099
0.705417
0.764165
0.726802
0.734787
0.734787
0.734787
0.734787
0.683076
0.683076
0.683076
0.683076
0.844817
0.844817
0.842518
0.839344
0.574121
0.574121
0.574121
0.574121
0.697201
0.697201
0.697192
0.697192
0.837716
0.837716
0.837716
0.837716
0.872116
0.892583
0.800088
0.800088
0.800088
0.800088
0.779731
0.779731
0.779731
0.779731
0.757694
0.826322
0.826322
0.826322
0.826322
0.836111
0.883256
0.883256
0.883256
0.883256
0.825164
0.757143
0.757143
0.757143
0.757143
0.757143
0.757143
0.757143
0.757143
0.752549
0.752549
0.752549
0.752549
0.868737
0.868737
0.868737
0.868737
0.861585
0.861585
0.861585
0.861585
0.784242
0.851388
0.734951
0.898112
0.821127
0.851388
0.734951
0.916708
0.778468
0.644233
0.644233
0.644233
0.644233
0.719109
0.719109
0.719109
0.719109
0.892308
0.892308
0.892308
0.892308
0.570035
0.570035
0.570035
0.570035
0.716534
0.900005
0.716534
0.900005
0.716534
0.900005
0.716534
0.900005
0.772591
0.907213
0.772586
0.907213
0.744844
0.885496
0.772575
0.907213
0.848776
0.848776
0.848776
0.848776
0.752918
0.752918
0.752918
0.752918
0.864615
0.77268
0.77268
0.77268
0.77268
0.572306
0.572306
0.572306
0.572306
0.761309
0.78606
0.721402
0.667814
0.62837
0.655808
0.654895
0.581832
0.581832
0.58168
0.581832
0.779057
0.779057
0.779057
0.779057
0.841081
0.911469
0.749641
0.710004
0.710004
0.710004
0.710004
0.755745
0.755745
0.755745
0.755745
0.818047
0.768672
0.691479
0.691479
0.691479
0.691479
0.801792
0.663338
0.801792
0.801792
0.663338
0.663338
0.801792
0.663338
0.832188
0.832188
0.888001
0.864615
0.813316
0.777403
0.777403
0.777403
0.777403
0.770737
0.770737
0.770737
0.770737
0.786074
0.786074
0.786074
0.786074
0.906766
0.796219
0.592798
0.592798
0.592798
0.592798
0.796299
0.91379
0.91379
0.91379
0.91379
0.805832
0.780665
0.759896
0.751891
0.751891
0.746308
0.745803
0.637309
0.637309
0.637309
0.637309
0.749942
0.758827
0.767205
0.767205
0.767205
0.767205
0.708236
0.781991
0.860964
0.860964
0.860964
0.860964
0.766618
0.766618
0.766618
0.766618
0.903917
0.850628
0.751097
0.751104
0.754568
0.742435
0.873121
0.863033
0.809557
0.809557
0.809557
0.809557
0.938872
0.870777
0.871074
0.856912
0.914575
0.861093
0.861093
0.861093
0.861093
0.81032
0.664038
0.846259
0.846259
0.846438
0.846259
0.884358
0.589261
0.589261
0.884358
0.884358
0.589261
0.884358
0.589261
0.802454
0.784825
0.784825
0.786598
0.784825
0.787601
0.738158
0.698816
0.698816
0.698816
0.698816
0.899019
0.857711
0.857711
0.857711
0.857711
0.749641
0.777403
0.777403
0.777403
0.777403
0.906662
0.906662
0.904377
0.899349
0.90772
0.90772
0.90772
0.90772
0.732718
0.732718
0.732718
0.732718
0.782147
0.67139
0.792067
0.846737
0.846737
0.846737
0.846737
0.872374
0.758687
0.840521
0.702004
0.702004
0.702004
0.702004
0.647854
0.641988
0.631848
0.623388
0.522271
0.522271
0.522271
0.522271
0.824409
0.824409
0.824409
0.824409
0.82749
0.872374
0.803258
0.798605
0.702595
0.798605
0.702595
0.798605
0.702595
0.798605
0.702595
0.724892
0.724892
0.744701
0.749786
0.737943
0.737943
0.737943
0.737943
0.831287
0.831287
0.831287
0.831287
0.748574
0.711653
0.748574
0.748574
0.711653
0.711653
0.748574
0.711653
0.750445
0.750445
0.750445
0.750445
0.940292
0.940292
0.940292
0.940292
0.813977
0.813977
0.813835
0.814367
0.645152
0.684036
0.836535
0.725149
0.725149
0.888001
0.847813
0.764726
0.764726
0.764726
0.764726
0.770781
0.770781
0.770813
0.770813
0.788187
0.788187
0.788187
0.788187
0.805351
0.805351
0.805351
0.805351
0.811102
0.73105
0.821127
0.806235
0.829487
0.811881
0.884828
0.747759
0.747759
0.747759
0.747759
0.824409
0.824409
0.824409
0.824409
0.743511
0.827666
0.764388
0.764388
0.764388
0.764388
0.766996
0.766996
0.766996
0.766996
0.870333
0.839974
0.870333
0.839974
0.870333
0.839974
0.870333
0.839974
0.676229
0.806344
0.877067
0.881925
0.884787
0.687571
0.687571
0.687571
0.687571
0.909954
0.782873
0.782873
0.782873
0.782873
0.716207
0.716207
0.742545
0.710752
0.788989
0.711352
0.788989
0.711352
0.711352
0.788989
0.788989
0.711352
0.836535
0.684509
0.689699
0.744535
0.744535
0.744535
0.744535
0.849261
0.683708
0.683708
0.683708
0.683708
0.786317
0.786317
0.707366
0.707366
0.786317
0.707366
0.786317
0.707366
0.764225
0.764225
0.764225
0.764225
0.754169
0.754169
0.754169
0.754169
0.632198
0.9009
0.9009
0.9009
0.9009
0.788127
0.788425
0.784424
0.765307
0.848596
0.728145
0.706569
0.665362
0.860964
0.860964
0.860964
0.860964
0.82584
0.82584
0.82584
0.82584
0.632334
0.632334
0.632334
0.632334
0.823259
0.789026
0.875718
0.747478
0.747478
0.747478
0.747478
0.768827
0.768827
0.846786
0.654715
0.655272
0.655455
0.958184
0.909577
0.958184
0.909577
0.958184
0.909577
0.958184
0.909577
0.824389
0.654715
0.655272
0.655455
0.702004
0.702004
0.702004
0.702004
0.897363
0.689879
0.689879
0.689879
0.689879
0.798304
0.798304
0.798304
0.798304
0.921427
0.921427
0.739017
0.739017
0.739017
0.739017
0.921427
0.921427
0.875718
0.919787
0.919787
0.784663
0.811783
0.721599
0.721598
0.741985
0.771774
0.857008
0.857008
0.86935
0.864129
0.864129
0.864129
0.864129
0.846259
0.846259
0.846438
0.846259
0.638668
0.638668
0.638668
0.638668
0.759639
0.759639
0.759639
0.759639
0.820404
0.820404
0.820404
0.820404
0.68227
0.824389
0.764225
0.764225
0.764225
0.764225
0.688107
0.688107
0.742759
0.742759
0.688107
0.688107
0.742759
0.742759
0.754067
0.7723
0.888784
0.654759
0.599473
0.599473
0.599473
0.599473
0.677322
0.677322
0.677322
0.677322
0.796459
0.796459
0.796459
0.796459
0.702948
0.702948
0.676577
0.676577
0.676577
0.676577
0.813735
0.813735
0.813735
0.813735
0.779057
0.779057
0.779057
0.779057
0.74563
0.694912
0.694912
0.715472
0.715161
0.870747
0.870747
0.870747
0.870747
0.860401
0.769104
0.66009
0.661627
0.669814
0.670125
0.830759
0.924858
0.924858
0.924858
0.924858
0.962419
0.71716
0.720623
0.807321
0.632029
0.632029
0.632029
0.632029
0.789368
0.837437
0.770806
0.873121
0.75269
0.75269
0.75269
0.75269
0.949342
0.754936
0.672367
0.785635
0.785635
0.785635
0.785635
0.764388
0.764388
0.764388
0.764388
0.766996
0.766996
0.766996
0.766996
0.771067
0.911379
0.83434
0.764825
0.764825
0.764825
0.764825
0.867237
0.867237
0.867237
0.867237
0.698816
0.698816
0.698816
0.698816
0.861929
0.819584
0.909302
0.909302
0.909302
0.909302
0.714763
0.714763
0.59225
0.588307
0.573018
0.623552
0.785635
0.785635
0.785635
0.785635
0.844817
0.844817
0.836229
0.8364
0.924861
0.924861
0.924861
0.924861
0.788187
0.788187
0.788187
0.788187
0.840466
0.840466
0.840466
0.840466
0.61762
0.61762
0.61762
0.61762
0.936944
0.936944
0.936944
0.936944
0.813222
0.813222
0.813222
0.813222
0.761309
0.78606
0.611723
0.802124
0.802124
0.802124
0.802124
0.898212
0.898212
0.898212
0.898212
0.794003
0.794003
0.794003
0.794003
0.940115
0.940115
0.940115
0.940115
0.6774
0.823133
0.743606
0.856992
0.856992
0.856992
0.856992
0.911983
0.910199
0.869595
0.82425
0.82425
0.82425
0.82425
0.967655
0.813649
0.813649
0.813649
0.813649
0.811262
0.693904
0.693904
0.693904
0.693904
0.924593
0.766081
0.745943
0.744805
0.745286
0.744503
0.865127
0.845563
0.886914
0.811894
0.904464
0.805788
0.805788
0.805788
0.805788
0.806411
0.806411
0.806411
0.806411
0.69283
0.69283
0.722233
0.722233
0.69283
0.69283
0.722233
0.722233
0.737002
0.702518
0.876001
0.876001
0.876001
0.876001
0.862157
0.912302
0.648986
0.790491
0.80307
0.813977
0.813977
0.813835
0.814367
0.725149
0.725149
0.893763
0.794091
0.708236
0.689699
0.756494
0.788364
0.844045
0.788364
0.788278
0.844261
0.844046
0.788431
0.844035
0.74205
0.74205
0.74205
0.803937
0.74205
0.803937
0.757487
0.757487
0.663443
0.663443
0.663443
0.663443
0.66871
0.817928
0.708207
0.840521
0.717093
0.770737
0.770737
0.770737
0.770737
0.885559
0.913955
0.748345
0.748345
0.748345
0.748345
0.807966
0.72039
0.72039
0.72039
0.72039
0.958427
0.958427
0.904377
0.920975
0.704238
0.704238
0.704828
0.705014
0.747993
0.789378
0.911564
0.713534
0.911564
0.713534
0.713534
0.911564
0.911564
0.713534
0.769955
0.840115
0.769924
0.840123
0.769935
0.840113
0.870777
0.871074
0.642124
0.741596
0.754067
0.7723
0.888066
0.888066
0.884546
0.884546
0.888076
0.884546
0.888442
0.884546
0.510694
0.510694
0.510694
0.510694
0.73105
0.890388
0.890388
0.890388
0.890388
0.890388
0.890388
0.890388
0.890388
0.886836
0.709757
0.886836
0.709757
0.886836
0.709757
0.886836
0.709757
0.716534
0.716534
0.716534
0.716534
0.907698
0.907698
0.850244
0.850244
0.907698
0.850244
0.907698
0.850244
0.7132
0.7132
0.7132
0.7132
0.78935
0.78935
0.789367
0.789367
0.743511
0.882258
0.76153
0.76153
0.76153
0.76153
0.728345
0.792313
0.728345
0.728345
0.792313
0.792313
0.728345
0.792313
0.70248
0.70248
0.698071
0.698071
0.788916
0.687571
0.687571
0.687571
0.687571
0.794522
0.794522
0.794522
0.794522
0.695481
0.766121
0.778078
0.778078
0.610289
0.88899
0.797279
0.729905
0.729905
0.729905
0.729905
0.771141
0.771141
0.771141
0.771141
0.76153
0.76153
0.76153
0.76153
0.790867
0.861815
0.724892
0.724892
0.744701
0.749786
0.716207
0.716207
0.742545
0.710752
0.534216
0.759013
0.759013
0.759013
0.759013
0.657427
0.657427
0.657427
0.657427
0.721402
0.759896
0.569422
0.897363
0.823259
0.83434
0.718193
0.718311
0.751051
0.750492
0.64017
0.64017
0.64017
0.64017
0.946557
0.946557
0.946557
0.946557
0.79556
0.79556
0.79556
0.79556
0.676577
0.676577
0.676577
0.676577
0.599193
0.599193
0.751832
0.82584
0.82584
0.82584
0.82584
0.718901
0.87553
0.921758
0.921758
0.752918
0.752918
0.752918
0.752918
0.921758
0.921758
0.592798
0.592798
0.592798
0.592798
0.818381
0.817115
0.853822
0.853822
0.853822
0.853822
0.853822
0.853822
0.853822
0.853822
0.861208
0.789368
0.904557
0.746174
0.710004
0.710004
0.710004
0.710004
0.898202
0.898202
0.898202
0.898202
0.522271
0.522271
0.522271
0.522271
0.663021
0.732718
0.732718
0.732718
0.732718
0.815423
0.815423
0.815423
0.815423
0.774953
0.777644
0.773801
0.777287
0.749942
0.758827
0.774777
0.774777
0.774777
0.774777
0.688482
0.688482
0.688482
0.688482
0.843612
0.706897
0.787795
0.608778
0.608778
0.608778
0.608778
0.85794
0.85794
0.85794
0.85794
0.793898
0.686579
0.762775
0.939291
0.57133
0.885339
0.832639
0.842276
0.832639
0.681848
0.85436
0.85436
0.85436
0.85436
0.872381
0.792452
0.67132
0.681533
0.650009
0.693474
0.911564
0.911564
0.911564
0.911564
0.838483
0.838483
0.838483
0.838483
0.773513
0.773513
0.773513
0.773513
0.736621
0.639474
0.639474
0.877465
0.877465
0.639474
0.877465
0.639474
0.877465
0.694912
0.694912
0.715472
0.715161
0.847248
0.728345
0.728345
0.728345
0.728345
0.899835
0.768553
0.768553
0.768553
0.768553
0.884828
0.9027
0.9027
0.989829
0.9027
0.989829
0.9027
0.989829
0.989829
0.772844
0.772844
0.772844
0.772844
0.682454
0.682454
0.682454
0.682454
0.67139
0.768634
0.700747
0.711864
0.799685
0.73854
0.691476
0.870267
0.73854
0.87685
0.881149
0.881149
0.866367
0.866367
0.736639
0.736639
0.736639
0.736639
0.736583
0.736583
0.736583
0.736583
0.819453
0.695893
0.695893
0.695893
0.695893
0.680595
0.878328
0.680595
0.878328
0.88106
0.681029
0.884884
0.681541
0.794854
0.794854
0.794854
0.794854
0.638499
0.638499
0.638499
0.638499
0.638499
0.638499
0.638499
0.638499
0.792754
0.726274
0.646772
0.646772
0.730689
0.726099
0.961363
0.858804
0.858804
0.858804
0.858804
0.814446
0.860453
0.855404
0.825673
0.855664
0.82559
0.75408
0.689826
0.682982
0.752298
0.752392
0.684075
0.684075
0.684075
0.684075
0.692264
0.896892
0.775659
0.896892
0.775659
0.896892
0.775659
0.896892
0.775659
0.864864
0.864864
0.864864
0.864864
0.574703
0.574703
0.582704
0.582704
0.574703
0.574703
0.582704
0.582704
0.785478
0.870333
0.785478
0.870333
0.785478
0.870333
0.785478
0.870333
0.696422
0.683076
0.683076
0.683076
0.683076
0.6954
0.81166
0.6966
0.806041
0.695036
0.811817
0.695607
0.806572
0.704238
0.704238
0.704238
0.704238
0.772938
0.827821
0.772938
0.827821
0.766258
0.766258
0.766258
0.766258
0.570035
0.570035
0.570035
0.570035
0.925866
0.723039
0.645152
0.689879
0.689879
0.689879
0.689879
0.847205
0.847205
0.847205
0.847205
0.797279
0.574121
0.574121
0.574121
0.574121
0.767354
0.854825
0.854825
0.745342
0.745342
0.745342
0.745342
0.862031
0.752461
0.794091
0.775659
0.775659
0.775659
0.775659
0.610155
0.785751
0.785751
0.785166
0.785751
0.654759
0.750445
0.750445
0.750445
0.750445
0.708589
0.708589
0.708589
0.708589
0.810018
0.810018
0.810018
0.810018
0.898202
0.898202
0.898202
0.898202
0.762775
0.612591
0.838709
0.782489
0.800738
0.804818
0.702518
0.754936
0.643669
0.860135
0.643669
0.860135
0.643669
0.860135
0.643669
0.860135
0.862903
0.788364
0.862903
0.788364
0.86296
0.788278
0.862853
0.788431
0.873216
0.873216
0.836229
0.8364
0.758449
0.662867
0.785751
0.785751
0.785166
0.785751
0.86935
0.801176
0.713265
0.713265
0.713265
0.713265
0.772591
0.772586
0.659203
0.772575
0.737002
0.640793
0.640793
0.640793
0.640793
0.692564
0.692647
0.7413
0.692639
0.71716
0.871035
0.637309
0.637309
0.637309
0.637309
0.827856
0.827856
0.827856
0.827856
0.803607
0.821074
0.821074
0.803607
0.821074
0.803607
0.821074
0.803607
0.803607
0.803607
0.803607
0.803607
0.821074
0.821074
0.821074
0.821074
0.638668
0.638668
0.638668
0.638668
0.664903
0.664903
0.664903
0.664903
0.897378
0.897378
0.89709
0.897378
0.86365
0.933596
0.697772
0.704294
0.766121
0.784009
0.733248
0.827927
0.844554
0.828012
0.844724
0.724077
0.919873
0.724077
0.919873
0.724077
0.919873
0.724077
0.919873
0.760567
0.760567
0.746308
0.745803
0.776479
0.772441
0.779812
0.752298
0.856494
0.80404
0.643669
0.643669
0.709757
0.709757
0.643669
0.643669
0.709757
0.709757
0.777553
0.672367
0.801176
0.659928
0.846786
0.830388
0.696498
0.830388
0.696498
0.685752
0.829476
0.833531
0.666602
0.736621
0.805788
0.805788
0.805788
0.805788
0.843715
0.825323
0.750296
0.681848
0.608671
0.784767
0.838532
0.693705
0.712765
0.683314
0.769104
0.7031
0.724691
0.700747
0.66871
0.777553
0.733248
0.75408
0.766285
0.832669
0.732622
0.677322
0.677322
0.677322
0.677322
0.610289
0.695481
0.732622
0.581221
0.551298
0.707673
0.802454
0.724587
0.73202
0.656519
0.668549
)
;

boundaryField
{
    frontAndBack
    {
        type            calculated;
        value           uniform 1;
    }
    bottom
    {
        type            calculated;
        value           uniform 1;
    }
    right
    {
        type            calculated;
        value           uniform 1;
    }
    top
    {
        type            calculated;
        value           uniform 1;
    }
    left
    {
        type            calculated;
        value           uniform 1;
    }
}


// ************************************************************************* //
