/*--------------------------------*- C++ -*----------------------------------*\
| =========                 |                                                 |
| \\      /  F ield         | OpenFOAM: The Open Source CFD Toolbox           |
|  \\    /   O peration     | Version:  v2106                                 |
|   \\  /    A nd           | Website:  www.openfoam.com                      |
|    \\/     M anipulation  |                                                 |
\*---------------------------------------------------------------------------*/
FoamFile
{
    version     2.0;
    format      ascii;
    arch        "LSB;label=32;scalar=64";
    class       volScalarField;
    location    "constant";
    object      cellVolume;
}
// * * * * * * * * * * * * * * * * * * * * * * * * * * * * * * * * * * * * * //

dimensions      [0 3 0 0 0 0 0];

internalField   nonuniform List<scalar> 
2658
(
4.62824e-05
4.83029e-05
5.56251e-05
5.56251e-05
5.56251e-05
5.56251e-05
5.09296e-05
5.09296e-05
5.09296e-05
5.09296e-05
3.65391e-05
3.65391e-05
3.65391e-05
3.65391e-05
5.08424e-05
4.06165e-05
4.06165e-05
4.18723e-05
4.16495e-05
6.47709e-05
6.47709e-05
6.47709e-05
6.47709e-05
4.78769e-05
5.08975e-05
4.63132e-05
4.47887e-05
4.61363e-05
4.61363e-05
4.61363e-05
4.61363e-05
4.94515e-05
4.94515e-05
4.94515e-05
4.94515e-05
4.9165e-05
5.93177e-05
5.93177e-05
5.93177e-05
5.93177e-05
4.77816e-05
4.77816e-05
4.77816e-05
4.77816e-05
4.63556e-05
6.22583e-05
5.07486e-05
5.34819e-05
5.34819e-05
5.34819e-05
5.34819e-05
5.2912e-05
5.2912e-05
5.2912e-05
5.2912e-05
5.492e-05
5.492e-05
5.492e-05
5.492e-05
5.57609e-05
5.57609e-05
5.57609e-05
5.57609e-05
4.76361e-05
4.76361e-05
4.76361e-05
4.76361e-05
3.60349e-05
3.60349e-05
3.60349e-05
3.60349e-05
6.36003e-05
6.91451e-05
6.36003e-05
6.36003e-05
6.91451e-05
6.91451e-05
6.36003e-05
6.91451e-05
4.52923e-05
4.01723e-05
4.01723e-05
4.01723e-05
4.01723e-05
3.58889e-05
3.58889e-05
3.58889e-05
3.58889e-05
4.30734e-05
4.30734e-05
4.34675e-05
4.46597e-05
5.14471e-05
4.72394e-05
5.14471e-05
4.72394e-05
5.14471e-05
4.72394e-05
5.14471e-05
4.72394e-05
4.22577e-05
4.10107e-05
3.96498e-05
5.25258e-05
5.25258e-05
5.25258e-05
5.25258e-05
6.02291e-05
6.02291e-05
6.02291e-05
6.02291e-05
4.02178e-05
4.74114e-05
4.98493e-05
4.97468e-05
5.13616e-05
4.74114e-05
4.84514e-05
4.98493e-05
5.11817e-05
4.58715e-05
4.25993e-05
4.86904e-05
4.43997e-05
4.55949e-05
4.55949e-05
4.55949e-05
4.55949e-05
5.07487e-05
5.07487e-05
5.07487e-05
5.07487e-05
4.81773e-05
4.81773e-05
4.81773e-05
4.81773e-05
5.01004e-05
5.01004e-05
5.01004e-05
5.01004e-05
4.57502e-05
4.39752e-05
4.39752e-05
4.39752e-05
4.39752e-05
5.27642e-05
5.27642e-05
5.27642e-05
5.27642e-05
4.21052e-05
4.21052e-05
4.21052e-05
4.21052e-05
4.51454e-05
4.54374e-05
4.06804e-05
4.06804e-05
4.06804e-05
4.06804e-05
4.49521e-05
4.49521e-05
4.49501e-05
4.49501e-05
4.15926e-05
2.97232e-05
4.99337e-05
4.61316e-05
4.79361e-05
5.92983e-05
4.67457e-05
5.50843e-05
4.60512e-05
4.50093e-05
4.00335e-05
4.06786e-05
4.06786e-05
4.06786e-05
4.06786e-05
5.00662e-05
5.00662e-05
5.20621e-05
5.20621e-05
5.00662e-05
5.00662e-05
5.20621e-05
5.20621e-05
5.65843e-05
3.92833e-05
3.8755e-05
5.72606e-05
3.03205e-05
3.03205e-05
3.02989e-05
3.02989e-05
4.87141e-05
4.43685e-05
4.62227e-05
4.37263e-05
4.37263e-05
4.37354e-05
4.37263e-05
4.28494e-05
4.28494e-05
4.28494e-05
4.28494e-05
3.65375e-05
3.54563e-05
3.54563e-05
3.54563e-05
3.54563e-05
4.42645e-05
4.42645e-05
4.42645e-05
4.42645e-05
5.19898e-05
5.19898e-05
5.19898e-05
5.19898e-05
3.74328e-05
4.99127e-05
5.07674e-05
4.20903e-05
5.25205e-05
4.59689e-05
4.20903e-05
5.07674e-05
4.48371e-05
5.14726e-05
4.40562e-05
4.40562e-05
4.40562e-05
4.40562e-05
3.41355e-05
3.41355e-05
3.41355e-05
3.41355e-05
4.18228e-05
4.21415e-05
4.21415e-05
4.21415e-05
4.21415e-05
4.00195e-05
4.00195e-05
4.00195e-05
4.00195e-05
4.82779e-05
3.0965e-05
2.71748e-05
5.14316e-05
5.14316e-05
5.14316e-05
5.14316e-05
2.8251e-05
5.3005e-05
4.31075e-05
4.31075e-05
4.31075e-05
4.31075e-05
4.89735e-05
4.14486e-05
4.14486e-05
4.14486e-05
4.14486e-05
4.34254e-05
4.34254e-05
4.34254e-05
4.34254e-05
2.78474e-05
2.78474e-05
2.78474e-05
2.78474e-05
4.79755e-05
4.79755e-05
4.79755e-05
4.79755e-05
2.83642e-05
4.07447e-05
4.07447e-05
4.07447e-05
4.07447e-05
3.84477e-05
3.84477e-05
3.84477e-05
3.84477e-05
2.86605e-05
5.74633e-05
5.74633e-05
5.74633e-05
5.74633e-05
6.25232e-05
4.7889e-05
5.71879e-05
5.5389e-05
4.83582e-05
4.83532e-05
3.35929e-05
3.35929e-05
3.35929e-05
3.35929e-05
3.7748e-05
3.78582e-05
4.81805e-05
4.81805e-05
4.91222e-05
5.05345e-05
4.45841e-05
4.45841e-05
4.45841e-05
4.45841e-05
4.29412e-05
4.29412e-05
4.29412e-05
4.29412e-05
3.65351e-05
4.9969e-05
4.9969e-05
4.9969e-05
4.9969e-05
4.66271e-05
4.66271e-05
4.66271e-05
4.66271e-05
3.52102e-05
4.15822e-05
4.15822e-05
4.15822e-05
4.15822e-05
4.45248e-05
4.45248e-05
4.45248e-05
4.45248e-05
3.78945e-05
3.78945e-05
3.78945e-05
3.78945e-05
3.25866e-05
3.92845e-05
3.92845e-05
3.92845e-05
3.92845e-05
4.97118e-05
4.97118e-05
4.97118e-05
4.97118e-05
4.18396e-05
4.74256e-05
5.02497e-05
5.19029e-05
3.88271e-05
3.88271e-05
3.88271e-05
3.88271e-05
4.53817e-05
4.72195e-05
5.15923e-05
5.15923e-05
5.15923e-05
5.15923e-05
5.19004e-05
5.19004e-05
5.19004e-05
5.19004e-05
4.69894e-05
4.69894e-05
4.6973e-05
4.69894e-05
4.17353e-05
4.17353e-05
4.17353e-05
4.17353e-05
3.97549e-05
4.74731e-05
4.74731e-05
4.74731e-05
4.74731e-05
3.49658e-05
4.13744e-05
4.90402e-05
4.90402e-05
4.90402e-05
4.90402e-05
3.95418e-05
3.95418e-05
3.95418e-05
3.95418e-05
5.21224e-05
5.10802e-05
5.21224e-05
5.10802e-05
5.21224e-05
5.10802e-05
5.21224e-05
5.10802e-05
5.03859e-05
5.03859e-05
5.03859e-05
5.03859e-05
4.63817e-05
4.63817e-05
4.63817e-05
4.63817e-05
3.56927e-05
3.56927e-05
3.56927e-05
3.56927e-05
3.56668e-05
3.56668e-05
3.56668e-05
3.56668e-05
5.59026e-05
5.54195e-05
5.54195e-05
5.59026e-05
5.54195e-05
5.59026e-05
5.54195e-05
5.59026e-05
4.47372e-05
4.47372e-05
4.47372e-05
4.47372e-05
4.43234e-05
4.43234e-05
4.43234e-05
4.43234e-05
4.52792e-05
4.52792e-05
4.52792e-05
4.52792e-05
3.38008e-05
4.76705e-05
4.79585e-05
4.79585e-05
4.37114e-05
4.37114e-05
4.79585e-05
4.37114e-05
4.79585e-05
4.37114e-05
3.66016e-05
4.31831e-05
4.31831e-05
4.31831e-05
4.31831e-05
4.14785e-05
4.61696e-05
4.61696e-05
4.61696e-05
4.61696e-05
4.44356e-05
4.44356e-05
4.44356e-05
4.44356e-05
4.95542e-05
4.95542e-05
4.95542e-05
4.95542e-05
4.63666e-05
4.63666e-05
4.63666e-05
4.63666e-05
3.80437e-05
3.80437e-05
3.80437e-05
3.80437e-05
4.30915e-05
3.96427e-05
4.30915e-05
3.96427e-05
4.30915e-05
3.96427e-05
4.30915e-05
3.96427e-05
3.61475e-05
3.37308e-05
4.82582e-05
4.30706e-05
3.37672e-05
3.37672e-05
3.37672e-05
3.37672e-05
6.10815e-05
6.16361e-05
6.09419e-05
6.1671e-05
3.25955e-05
3.25955e-05
3.25955e-05
3.25955e-05
4.30441e-05
4.30441e-05
4.30749e-05
4.30441e-05
4.07909e-05
4.40234e-05
3.90926e-05
3.90926e-05
3.90926e-05
3.90926e-05
4.58245e-05
4.58245e-05
4.58245e-05
4.58245e-05
3.91656e-05
4.74404e-05
3.9885e-05
3.9885e-05
3.9885e-05
3.9885e-05
4.14195e-05
4.14195e-05
4.14195e-05
4.14195e-05
4.72225e-05
4.27816e-05
4.72225e-05
4.27816e-05
4.72225e-05
4.72225e-05
4.27816e-05
4.27816e-05
3.70993e-05
3.70993e-05
3.70993e-05
3.70993e-05
3.6219e-05
3.6219e-05
3.6219e-05
3.6219e-05
3.67285e-05
4.54531e-05
4.54531e-05
4.54531e-05
4.54531e-05
4.64058e-05
3.72491e-05
3.72491e-05
3.72491e-05
3.72491e-05
4.51983e-05
4.36631e-05
4.21465e-05
4.05453e-05
5.89288e-05
5.89288e-05
5.89288e-05
5.89288e-05
5.42983e-05
5.42983e-05
5.42983e-05
5.42983e-05
2.89201e-05
3.98623e-05
3.98201e-05
3.98201e-05
3.98201e-05
3.98201e-05
3.95115e-05
4.76558e-05
3.92166e-05
3.92166e-05
3.92166e-05
3.92166e-05
5.1077e-05
4.59444e-05
4.59444e-05
4.59444e-05
4.59444e-05
4.01253e-05
4.02895e-05
4.00507e-05
4.02304e-05
4.07461e-05
4.43822e-05
4.43822e-05
4.43553e-05
4.43822e-05
3.68166e-05
4.33848e-05
4.33848e-05
4.33848e-05
4.33848e-05
4.54706e-05
4.54706e-05
4.54706e-05
4.54706e-05
3.1653e-05
3.33306e-05
4.90104e-05
4.76234e-05
4.90104e-05
4.76234e-05
4.90104e-05
4.90104e-05
4.76234e-05
4.76234e-05
3.84351e-05
4.23486e-05
4.23486e-05
4.23486e-05
4.23486e-05
4.73538e-05
4.73538e-05
4.73538e-05
4.73538e-05
3.67817e-05
2.96435e-05
2.96435e-05
2.96435e-05
2.96435e-05
3.35431e-05
3.30416e-05
3.35431e-05
3.16281e-05
4.21073e-05
4.2107e-05
4.1926e-05
4.21063e-05
2.82609e-05
3.87166e-05
3.87166e-05
3.87166e-05
3.87166e-05
3.06692e-05
3.06692e-05
3.13012e-05
3.14727e-05
4.31104e-05
4.31104e-05
3.88668e-05
4.31104e-05
3.88668e-05
4.31104e-05
3.88668e-05
3.88668e-05
5.14092e-05
5.04213e-05
5.14092e-05
5.14092e-05
5.04213e-05
5.04213e-05
5.14092e-05
5.04213e-05
3.59474e-05
3.59474e-05
3.59474e-05
3.59474e-05
3.15044e-05
3.91444e-05
3.91444e-05
3.6569e-05
3.84383e-05
3.44438e-05
3.88803e-05
3.88803e-05
3.88803e-05
3.88803e-05
3.67205e-05
3.73356e-05
3.25616e-05
3.25616e-05
3.25565e-05
3.25708e-05
4.62914e-05
4.62914e-05
4.72052e-05
4.62914e-05
3.43753e-05
3.43753e-05
3.43753e-05
3.43753e-05
3.51819e-05
3.51819e-05
3.51819e-05
3.51819e-05
4.24096e-05
4.24096e-05
4.31256e-05
4.31256e-05
3.63512e-05
3.63512e-05
3.63512e-05
3.63512e-05
3.81972e-05
4.2613e-05
4.07282e-05
4.2613e-05
4.07282e-05
4.2613e-05
4.07282e-05
4.2613e-05
4.07282e-05
4.29806e-05
4.61485e-05
3.9682e-05
3.9682e-05
3.9682e-05
3.9682e-05
2.53847e-05
3.10661e-05
3.67209e-05
3.67209e-05
4.43389e-05
4.63813e-05
4.41418e-05
4.41418e-05
4.41418e-05
4.41418e-05
4.02723e-05
3.76292e-05
3.76292e-05
3.76292e-05
3.76292e-05
4.02315e-05
4.02315e-05
4.02315e-05
4.02315e-05
4.51792e-05
4.51792e-05
4.55994e-05
4.60351e-05
3.76159e-05
3.76159e-05
3.76159e-05
3.76159e-05
3.93362e-05
3.93362e-05
3.93362e-05
3.93362e-05
4.81423e-05
4.81423e-05
4.81423e-05
4.81423e-05
4.05252e-05
4.05252e-05
4.05252e-05
4.05252e-05
4.74051e-05
4.52942e-05
4.74051e-05
4.52942e-05
4.74051e-05
4.52942e-05
4.74051e-05
4.52942e-05
5.90347e-05
5.90347e-05
5.90347e-05
5.90347e-05
3.98447e-05
3.98447e-05
3.98447e-05
3.98447e-05
4.68589e-05
4.60187e-05
3.72491e-05
3.72491e-05
3.72491e-05
3.72491e-05
5.33722e-05
5.33722e-05
5.33722e-05
5.33722e-05
4.00834e-05
4.00834e-05
4.00834e-05
4.00834e-05
5.06209e-05
4.75867e-05
5.06209e-05
4.75867e-05
5.06209e-05
4.75867e-05
5.06209e-05
4.75867e-05
3.57568e-05
3.5551e-05
3.45238e-05
3.45238e-05
3.45238e-05
3.45238e-05
3.26725e-05
4.47773e-05
3.26725e-05
4.47773e-05
3.26725e-05
4.47773e-05
3.26725e-05
4.47773e-05
4.10384e-05
4.1118e-05
4.58512e-05
4.61882e-05
4.58512e-05
4.61882e-05
4.58512e-05
4.61882e-05
4.58512e-05
4.61882e-05
4.31175e-05
4.71631e-05
4.74993e-05
4.74993e-05
4.74993e-05
4.74993e-05
3.48053e-05
3.48053e-05
3.46705e-05
3.48053e-05
3.49624e-05
3.49624e-05
3.51869e-05
3.51869e-05
4.75845e-05
4.75845e-05
4.75845e-05
4.75845e-05
2.80408e-05
2.81092e-05
3.56091e-05
3.56091e-05
3.56091e-05
3.56091e-05
3.5182e-05
3.5182e-05
3.5182e-05
3.5182e-05
4.43922e-05
4.20282e-05
4.53852e-05
4.58418e-05
4.48758e-05
4.52334e-05
4.53852e-05
4.58418e-05
4.34674e-05
4.34674e-05
4.34674e-05
4.34674e-05
4.74461e-05
4.74461e-05
4.74584e-05
4.74461e-05
3.91977e-05
3.91977e-05
3.91977e-05
3.91977e-05
3.75397e-05
3.75397e-05
3.86777e-05
3.75397e-05
4.31447e-05
3.96026e-05
5.47757e-05
5.47757e-05
5.47757e-05
5.47757e-05
4.84482e-05
3.07008e-05
2.92145e-05
4.11745e-05
4.22073e-05
4.11745e-05
4.22073e-05
4.69576e-05
3.70436e-05
4.69762e-05
3.72991e-05
4.23345e-05
4.23345e-05
4.23345e-05
4.23345e-05
4.0027e-05
4.0027e-05
4.0027e-05
4.0027e-05
3.63373e-05
5.01823e-05
4.14745e-05
4.3248e-05
3.46642e-05
2.90203e-05
3.46642e-05
3.34119e-05
2.87312e-05
2.90203e-05
3.41883e-05
2.88892e-05
3.17809e-05
3.25705e-05
2.62493e-05
4.03599e-05
4.03599e-05
4.03599e-05
4.03599e-05
2.48897e-05
2.51816e-05
3.04705e-05
3.29981e-05
4.23377e-05
3.95651e-05
3.95651e-05
3.95651e-05
3.95651e-05
3.82294e-05
3.99404e-05
4.10632e-05
4.03554e-05
5.16446e-05
3.90419e-05
5.16446e-05
3.90419e-05
5.16446e-05
3.90419e-05
5.16446e-05
3.90419e-05
4.02542e-05
4.02542e-05
4.02542e-05
4.02542e-05
5.53538e-05
4.52564e-05
3.28926e-05
3.28008e-05
4.71989e-05
4.71989e-05
4.71989e-05
4.71989e-05
3.02248e-05
4.00469e-05
3.58285e-05
3.32204e-05
3.39831e-05
3.39831e-05
3.39831e-05
3.39831e-05
3.23433e-05
3.02713e-05
3.28625e-05
3.28625e-05
3.28625e-05
3.28625e-05
3.59999e-05
4.72429e-05
4.36643e-05
4.6275e-05
4.6275e-05
4.6275e-05
4.6275e-05
3.25715e-05
2.94174e-05
3.11834e-05
4.01188e-05
4.01188e-05
4.01188e-05
4.01188e-05
4.60801e-05
4.60801e-05
4.60801e-05
4.60801e-05
3.34354e-05
5.15556e-05
3.84057e-05
3.84057e-05
3.84057e-05
3.84057e-05
4.36129e-05
4.36129e-05
4.36129e-05
4.36129e-05
3.9208e-05
3.72293e-05
2.61117e-05
2.61214e-05
2.6504e-05
2.65359e-05
3.91795e-05
2.80192e-05
2.80192e-05
2.80192e-05
2.80192e-05
3.82372e-05
3.82372e-05
3.82372e-05
3.82372e-05
4.75687e-05
4.56101e-05
4.56101e-05
4.56101e-05
4.56101e-05
4.34408e-05
4.2015e-05
4.34411e-05
3.99195e-05
3.44831e-05
3.96614e-05
3.96614e-05
3.96614e-05
3.96614e-05
2.72304e-05
3.72619e-05
3.72619e-05
3.72619e-05
3.72619e-05
4.30843e-05
4.1486e-05
3.98592e-05
4.32042e-05
3.62281e-05
4.32042e-05
3.62281e-05
4.13142e-05
3.66481e-05
3.85252e-05
3.58158e-05
3.57645e-05
3.57645e-05
3.57645e-05
3.57645e-05
2.92901e-05
3.8113e-05
3.8113e-05
4.08247e-05
4.08247e-05
3.8113e-05
4.08247e-05
3.8113e-05
4.08247e-05
3.84975e-05
3.84975e-05
3.84975e-05
3.84975e-05
5.02573e-05
3.07345e-05
2.69965e-05
3.77682e-05
4.08246e-05
4.08246e-05
4.08246e-05
4.08246e-05
3.76652e-05
3.76652e-05
3.76652e-05
3.76652e-05
5.47492e-05
5.38833e-05
3.65706e-05
3.65706e-05
3.65706e-05
3.65706e-05
2.89007e-05
2.89007e-05
2.89007e-05
2.89007e-05
3.21006e-05
3.21006e-05
3.21006e-05
3.21006e-05
4.11645e-05
4.11645e-05
4.11051e-05
4.11645e-05
4.39746e-05
4.15564e-05
4.15564e-05
4.15564e-05
4.15564e-05
4.30856e-05
4.30856e-05
4.30856e-05
4.30856e-05
3.32588e-05
3.5746e-05
3.5746e-05
3.5746e-05
3.5746e-05
4.09998e-05
4.09998e-05
3.57403e-05
4.09998e-05
3.57403e-05
3.57403e-05
4.09998e-05
3.57403e-05
3.88221e-05
3.88221e-05
3.88221e-05
3.88221e-05
3.1127e-05
4.69938e-05
4.69938e-05
4.69938e-05
4.69938e-05
5.26103e-05
4.48346e-05
4.48346e-05
4.48346e-05
4.48346e-05
3.61228e-05
3.61228e-05
3.61228e-05
3.61228e-05
4.21485e-05
4.21485e-05
4.21485e-05
4.21485e-05
5.09309e-05
2.6268e-05
3.93864e-05
3.93864e-05
3.93864e-05
3.93864e-05
3.05052e-05
3.34548e-05
3.83991e-05
3.77231e-05
4.6459e-05
4.6459e-05
4.6459e-05
4.6459e-05
4.24219e-05
4.24219e-05
4.24219e-05
4.24219e-05
3.03749e-05
3.03749e-05
2.9281e-05
2.9284e-05
4.45561e-05
4.45561e-05
4.45561e-05
4.45561e-05
4.19918e-05
4.19918e-05
4.19913e-05
4.19913e-05
3.80915e-05
3.80915e-05
3.80915e-05
3.80915e-05
4.24844e-05
4.17096e-05
4.7233e-05
4.7233e-05
4.7233e-05
4.7233e-05
3.56781e-05
3.56781e-05
3.56781e-05
3.56781e-05
3.51614e-05
4.55322e-05
4.55322e-05
4.55322e-05
4.55322e-05
4.4318e-05
4.31428e-05
4.31428e-05
4.31428e-05
4.31428e-05
3.70568e-05
3.16147e-05
4.17553e-05
3.16147e-05
3.16147e-05
4.17553e-05
4.17553e-05
3.16147e-05
4.17553e-05
3.95282e-05
3.95282e-05
3.95282e-05
3.95282e-05
4.4694e-05
4.4694e-05
4.4694e-05
4.4694e-05
3.17698e-05
3.17698e-05
3.17698e-05
3.17698e-05
3.98727e-05
4.78403e-05
4.07306e-05
4.67961e-05
4.58771e-05
4.78403e-05
4.07306e-05
4.70622e-05
4.31423e-05
5.78392e-05
5.78392e-05
5.78392e-05
5.78392e-05
5.51535e-05
5.51535e-05
5.51535e-05
5.51535e-05
3.50539e-05
3.50539e-05
3.50539e-05
3.50539e-05
4.20947e-05
4.20947e-05
4.20947e-05
4.20947e-05
4.77806e-05
4.30027e-05
4.77806e-05
4.30027e-05
4.77806e-05
4.30027e-05
4.77806e-05
4.30027e-05
3.86965e-05
4.26543e-05
3.86965e-05
4.26543e-05
3.72985e-05
4.21216e-05
3.86965e-05
4.26543e-05
4.21365e-05
4.21365e-05
4.21365e-05
4.21365e-05
4.18902e-05
4.18902e-05
4.18902e-05
4.18902e-05
3.0988e-05
3.25339e-05
3.25339e-05
3.25339e-05
3.25339e-05
3.0608e-05
3.0608e-05
3.0608e-05
3.0608e-05
4.72759e-05
4.33403e-05
4.23868e-05
3.53354e-05
3.32483e-05
3.47001e-05
3.46518e-05
2.76056e-05
2.76056e-05
2.76056e-05
2.76056e-05
3.59867e-05
3.59867e-05
3.59867e-05
3.59867e-05
3.54486e-05
3.92118e-05
4.83051e-05
4.47549e-05
4.47549e-05
4.47549e-05
4.47549e-05
2.73723e-05
2.73723e-05
2.73723e-05
2.73723e-05
3.26206e-05
3.72065e-05
2.78193e-05
2.78193e-05
2.78193e-05
2.78193e-05
3.80845e-05
3.53277e-05
3.80845e-05
3.80845e-05
3.53277e-05
3.53277e-05
3.80845e-05
3.53277e-05
3.55846e-05
3.55846e-05
3.91682e-05
3.57882e-05
3.67605e-05
3.00038e-05
3.00038e-05
3.00038e-05
3.00038e-05
4.18235e-05
4.18235e-05
4.18235e-05
4.18235e-05
3.50054e-05
3.50054e-05
3.50054e-05
3.50054e-05
3.33042e-05
3.50522e-05
3.84388e-05
3.84388e-05
3.84388e-05
3.84388e-05
4.29452e-05
3.74652e-05
3.74652e-05
3.74652e-05
3.74652e-05
3.74357e-05
3.83272e-05
3.73202e-05
3.18874e-05
3.18874e-05
3.22926e-05
3.22926e-05
4.523e-05
4.523e-05
4.523e-05
4.523e-05
4.5273e-05
4.3524e-05
3.55727e-05
3.55727e-05
3.55727e-05
3.55727e-05
3.86982e-05
4.94868e-05
4.12771e-05
4.12771e-05
4.12771e-05
4.12771e-05
3.92403e-05
3.92403e-05
3.92403e-05
3.92403e-05
3.36773e-05
3.27706e-05
3.16267e-05
3.16267e-05
3.1636e-05
3.12612e-05
3.92e-05
3.70937e-05
4.13633e-05
4.13633e-05
4.13633e-05
4.13633e-05
3.06476e-05
3.96937e-05
3.9694e-05
3.09586e-05
3.30396e-05
4.42091e-05
4.42091e-05
4.42091e-05
4.42091e-05
3.47993e-05
3.42349e-05
5.23942e-05
5.23942e-05
5.23905e-05
5.23942e-05
3.61036e-05
3.28577e-05
3.28577e-05
3.61036e-05
3.61036e-05
3.28577e-05
3.61036e-05
3.28577e-05
3.24292e-05
3.3782e-05
3.3782e-05
3.38826e-05
3.3782e-05
3.40277e-05
3.51775e-05
3.81151e-05
3.81151e-05
3.81151e-05
3.81151e-05
3.83709e-05
3.87942e-05
3.87942e-05
3.87942e-05
3.87942e-05
3.62115e-05
3.85949e-05
3.85949e-05
3.85949e-05
3.85949e-05
3.51485e-05
3.51485e-05
3.60971e-05
3.44551e-05
3.51438e-05
3.51438e-05
3.51438e-05
3.51438e-05
3.41375e-05
3.41375e-05
3.41375e-05
3.41375e-05
3.77604e-05
4.39769e-05
2.87815e-05
3.99939e-05
3.99939e-05
3.99939e-05
3.99939e-05
4.25592e-05
3.54654e-05
3.49822e-05
3.54301e-05
3.54301e-05
3.54301e-05
3.54301e-05
3.95719e-05
3.95696e-05
3.8506e-05
3.8445e-05
4.5757e-05
4.5757e-05
4.5757e-05
4.5757e-05
3.92974e-05
3.92974e-05
3.92974e-05
3.92974e-05
3.57403e-05
3.71275e-05
3.18113e-05
4.18657e-05
3.34342e-05
4.18657e-05
3.34342e-05
4.18657e-05
3.34342e-05
4.18657e-05
3.34342e-05
3.8767e-05
3.8767e-05
3.94813e-05
3.83112e-05
3.12405e-05
3.12405e-05
3.12405e-05
3.12405e-05
3.90653e-05
3.90653e-05
3.90653e-05
3.90653e-05
3.68353e-05
4.92073e-05
3.68353e-05
3.68353e-05
4.92073e-05
4.92073e-05
3.68353e-05
4.92073e-05
3.3486e-05
3.3486e-05
3.3486e-05
3.3486e-05
3.83871e-05
3.83871e-05
3.83871e-05
3.83871e-05
2.78902e-05
2.78902e-05
2.78873e-05
2.78873e-05
4.13627e-05
3.27578e-05
3.24362e-05
4.27603e-05
4.27603e-05
4.41082e-05
4.13921e-05
3.02283e-05
3.02283e-05
3.02283e-05
3.02283e-05
3.23665e-05
3.23665e-05
3.23674e-05
3.23674e-05
4.25808e-05
4.25808e-05
4.25808e-05
4.25808e-05
4.15499e-05
4.15499e-05
4.15499e-05
4.15499e-05
3.9299e-05
3.54598e-05
3.7671e-05
3.28385e-05
3.5786e-05
3.30684e-05
3.89863e-05
2.9414e-05
2.9414e-05
2.9414e-05
2.9414e-05
3.23971e-05
3.23971e-05
3.23971e-05
3.23971e-05
4.31913e-05
3.79662e-05
4.39072e-05
4.39072e-05
4.39072e-05
4.39072e-05
3.53691e-05
3.53691e-05
3.53691e-05
3.53691e-05
3.57994e-05
3.33573e-05
3.57994e-05
3.33573e-05
3.57994e-05
3.33573e-05
3.57994e-05
3.33573e-05
3.22362e-05
3.57954e-05
4.0657e-05
4.00263e-05
4.01562e-05
4.75881e-05
4.75881e-05
4.75881e-05
4.75881e-05
4.76291e-05
3.72831e-05
3.72831e-05
3.72831e-05
3.72831e-05
3.58494e-05
3.58494e-05
3.40225e-05
3.51984e-05
4.56398e-05
3.60093e-05
4.56398e-05
3.60093e-05
3.60093e-05
4.56398e-05
4.56398e-05
3.60093e-05
2.7134e-05
4.84036e-05
5.28142e-05
3.41179e-05
3.41179e-05
3.41179e-05
3.41179e-05
3.92466e-05
3.03809e-05
3.03809e-05
3.03809e-05
3.03809e-05
3.53792e-05
3.53792e-05
3.06889e-05
3.06889e-05
3.53792e-05
3.06889e-05
3.53792e-05
3.06889e-05
3.23977e-05
3.23977e-05
3.23977e-05
3.23977e-05
3.5038e-05
3.5038e-05
3.5038e-05
3.5038e-05
3.06289e-05
3.59306e-05
3.59306e-05
3.59306e-05
3.59306e-05
3.84621e-05
3.84538e-05
3.54676e-05
3.54959e-05
3.55049e-05
3.45327e-05
3.55049e-05
3.45342e-05
3.55381e-05
3.55381e-05
3.55381e-05
3.55381e-05
3.53568e-05
3.53568e-05
3.53568e-05
3.53568e-05
2.67784e-05
2.67784e-05
2.67784e-05
2.67784e-05
3.13088e-05
3.78728e-05
3.80959e-05
3.51697e-05
3.51697e-05
3.51697e-05
3.51697e-05
3.74885e-05
2.88222e-05
3.30308e-05
3.81021e-05
3.81591e-05
3.81506e-05
3.2428e-05
3.38432e-05
3.2428e-05
3.38432e-05
3.2428e-05
3.38432e-05
3.2428e-05
3.38432e-05
3.61024e-05
2.4946e-05
2.50046e-05
2.5006e-05
2.48721e-05
2.48721e-05
2.48721e-05
2.48721e-05
3.18717e-05
3.81061e-05
3.81061e-05
3.81061e-05
3.81061e-05
3.79869e-05
3.79869e-05
3.79869e-05
3.79869e-05
4.09441e-05
4.09441e-05
3.66214e-05
3.66214e-05
3.66214e-05
3.66214e-05
4.09441e-05
4.09441e-05
4.35024e-05
3.78718e-05
3.78718e-05
4.33593e-05
4.33593e-05
3.13468e-05
3.1347e-05
3.11745e-05
3.08088e-05
3.80672e-05
3.26239e-05
3.45832e-05
3.92846e-05
3.92846e-05
3.92846e-05
3.92846e-05
4.4339e-05
4.4339e-05
4.43453e-05
4.4339e-05
4.18071e-05
4.18071e-05
4.18071e-05
4.18071e-05
3.50043e-05
3.50043e-05
3.50043e-05
3.50043e-05
3.9883e-05
3.9883e-05
3.9883e-05
3.9883e-05
3.42379e-05
2.97624e-05
2.47591e-05
2.47591e-05
2.47591e-05
2.47591e-05
4.14441e-05
4.14441e-05
3.07829e-05
3.07829e-05
4.14441e-05
4.14441e-05
3.07829e-05
3.07829e-05
3.6096e-05
3.6096e-05
3.72571e-05
3.46292e-05
2.60575e-05
2.60575e-05
2.60575e-05
2.60575e-05
3.5673e-05
3.5673e-05
3.5673e-05
3.5673e-05
3.76243e-05
3.76243e-05
3.76243e-05
3.76243e-05
2.63443e-05
3.74769e-05
4.22339e-05
4.22339e-05
4.22339e-05
4.22339e-05
3.29768e-05
3.29768e-05
3.29768e-05
3.29768e-05
2.80357e-05
2.80357e-05
2.80357e-05
2.80357e-05
2.69527e-05
4.38378e-05
4.38378e-05
4.43453e-05
4.43453e-05
3.48534e-05
3.48534e-05
3.48534e-05
3.48534e-05
3.86112e-05
2.98826e-05
2.6121e-05
2.61804e-05
2.57919e-05
2.57629e-05
3.31246e-05
3.78482e-05
3.78482e-05
3.78482e-05
3.78482e-05
3.95783e-05
3.86303e-05
3.25709e-05
4.00562e-05
3.16433e-05
3.16433e-05
3.16433e-05
3.16433e-05
3.2643e-05
3.84961e-05
3.18452e-05
3.42264e-05
4.3252e-05
4.3252e-05
4.3252e-05
4.3252e-05
3.42993e-05
3.49228e-05
3.80909e-05
2.78272e-05
2.78272e-05
2.78272e-05
2.78272e-05
3.35622e-05
3.35622e-05
3.35622e-05
3.35622e-05
2.7128e-05
2.7128e-05
2.7128e-05
2.7128e-05
3.65797e-05
3.54243e-05
3.48719e-05
4.0173e-05
4.0173e-05
4.0173e-05
4.0173e-05
3.60336e-05
3.60336e-05
3.60336e-05
3.60336e-05
2.66355e-05
2.66355e-05
2.66355e-05
2.66355e-05
2.59978e-05
2.79021e-05
3.39016e-05
3.39016e-05
3.39016e-05
3.39016e-05
4.21991e-05
3.01624e-05
3.0067e-05
3.08982e-05
2.90906e-05
3.20958e-05
3.542e-05
3.542e-05
3.542e-05
3.542e-05
2.56612e-05
2.56612e-05
2.46698e-05
2.45793e-05
3.71545e-05
3.71545e-05
3.71545e-05
3.71545e-05
3.35616e-05
3.35616e-05
3.35616e-05
3.35616e-05
3.80682e-05
3.80682e-05
3.80682e-05
3.80682e-05
3.17748e-05
3.17748e-05
3.17748e-05
3.17748e-05
3.31273e-05
3.31273e-05
3.31273e-05
3.31273e-05
3.74446e-05
3.74446e-05
3.74446e-05
3.74446e-05
3.59916e-05
3.40681e-05
3.80849e-05
2.98887e-05
2.98887e-05
2.98887e-05
2.98887e-05
2.68464e-05
2.68464e-05
2.68464e-05
2.68464e-05
3.42298e-05
3.42298e-05
3.42298e-05
3.42298e-05
3.52375e-05
3.52375e-05
3.52375e-05
3.52375e-05
3.40443e-05
2.74442e-05
3.33412e-05
3.36356e-05
3.36356e-05
3.36356e-05
3.36356e-05
2.84791e-05
2.82231e-05
3.67181e-05
3.85516e-05
3.85516e-05
3.85516e-05
3.85516e-05
4.43807e-05
3.5536e-05
3.5536e-05
3.5536e-05
3.5536e-05
3.14281e-05
3.31558e-05
3.31558e-05
3.31558e-05
3.31558e-05
3.24987e-05
3.29956e-05
3.31066e-05
3.30561e-05
3.30574e-05
3.30426e-05
3.12277e-05
3.05215e-05
3.31135e-05
2.81488e-05
3.1355e-05
2.87311e-05
2.87311e-05
2.87311e-05
2.87311e-05
3.45543e-05
3.45543e-05
3.45543e-05
3.45543e-05
2.64058e-05
2.64058e-05
2.94849e-05
2.94849e-05
2.64058e-05
2.64058e-05
2.94849e-05
2.94849e-05
3.28255e-05
4.08897e-05
3.44585e-05
3.44585e-05
3.44585e-05
3.44585e-05
4.23879e-05
4.18486e-05
3.22849e-05
3.74783e-05
3.80747e-05
3.42641e-05
3.42641e-05
3.42666e-05
3.42442e-05
3.10076e-05
3.10076e-05
3.94223e-05
3.50927e-05
2.74075e-05
3.64259e-05
2.88582e-05
3.63156e-05
3.49599e-05
3.63156e-05
3.63152e-05
3.49689e-05
3.496e-05
3.63002e-05
3.49595e-05
3.01392e-05
4.06161e-05
3.01392e-05
3.07091e-05
4.06161e-05
3.81984e-05
3.04141e-05
4.01513e-05
3.44329e-05
3.44329e-05
3.44329e-05
3.44329e-05
3.25617e-05
2.90081e-05
2.98086e-05
2.94033e-05
3.01826e-05
3.22349e-05
3.22349e-05
3.22349e-05
3.22349e-05
3.54639e-05
3.87593e-05
3.6824e-05
3.6824e-05
3.6824e-05
3.6824e-05
3.16557e-05
3.26294e-05
3.26294e-05
3.26294e-05
3.26294e-05
3.4359e-05
3.4359e-05
3.26454e-05
3.24168e-05
3.1657e-05
3.1657e-05
3.16821e-05
3.16905e-05
3.35017e-05
3.63262e-05
3.59601e-05
3.38737e-05
3.59601e-05
3.38737e-05
3.38737e-05
3.59601e-05
3.59601e-05
3.38737e-05
2.67986e-05
3.09466e-05
2.67975e-05
3.095e-05
2.67978e-05
3.095e-05
3.45644e-05
3.45764e-05
2.65288e-05
3.02172e-05
2.72189e-05
2.7877e-05
3.22506e-05
3.22506e-05
3.24225e-05
3.24225e-05
3.22506e-05
3.24225e-05
3.22506e-05
3.24225e-05
2.65878e-05
2.65878e-05
2.65878e-05
2.65878e-05
4.85054e-05
4.15223e-05
3.6971e-05
4.15223e-05
3.6971e-05
4.15223e-05
3.6971e-05
4.15223e-05
3.6971e-05
3.29436e-05
3.51669e-05
3.29436e-05
3.51669e-05
3.29436e-05
3.51669e-05
3.29436e-05
3.51669e-05
3.42364e-05
3.42364e-05
3.42364e-05
3.42364e-05
3.32711e-05
3.32711e-05
3.66544e-05
3.66544e-05
3.32711e-05
3.66544e-05
3.32711e-05
3.66544e-05
3.38093e-05
3.38093e-05
3.38093e-05
3.38093e-05
4.41071e-05
3.48159e-05
4.4102e-05
3.48127e-05
3.21132e-05
2.87365e-05
3.75653e-05
3.75653e-05
3.75653e-05
3.75653e-05
3.55911e-05
3.09334e-05
3.55911e-05
3.55911e-05
3.09334e-05
3.09334e-05
3.55911e-05
3.09334e-05
3.47387e-05
3.47387e-05
3.45207e-05
3.45207e-05
2.49715e-05
3.27202e-05
3.27202e-05
3.27202e-05
3.27202e-05
3.43647e-05
3.43647e-05
3.43647e-05
3.43647e-05
3.83724e-05
4.39365e-05
3.47074e-05
4.46065e-05
3.31327e-05
3.18616e-05
3.17117e-05
3.47322e-05
3.47322e-05
3.47322e-05
3.47322e-05
2.14742e-05
2.14742e-05
2.14742e-05
2.14742e-05
2.86071e-05
2.86071e-05
2.86071e-05
2.86071e-05
4.03951e-05
3.56571e-05
2.81018e-05
2.81018e-05
2.94017e-05
2.87252e-05
2.56756e-05
2.56756e-05
2.52632e-05
2.50173e-05
2.71107e-05
3.04507e-05
3.04507e-05
3.04507e-05
3.04507e-05
2.99853e-05
2.99853e-05
2.99853e-05
2.99853e-05
3.05779e-05
2.83594e-05
2.99575e-05
2.86005e-05
2.57753e-05
2.9095e-05
3.0313e-05
3.0318e-05
2.78216e-05
2.79927e-05
3.32251e-05
3.32251e-05
3.32251e-05
3.32251e-05
3.08535e-05
3.08535e-05
3.08535e-05
3.08535e-05
4.22245e-05
4.22245e-05
4.22245e-05
4.22245e-05
2.85745e-05
2.85745e-05
2.85745e-05
2.85745e-05
4.01543e-05
2.40602e-05
3.58402e-05
2.9199e-05
2.9199e-05
2.9199e-05
2.9199e-05
3.41972e-05
3.3329e-05
4.04718e-05
4.04718e-05
3.15398e-05
3.15398e-05
3.15398e-05
3.15398e-05
4.04718e-05
4.04718e-05
2.27864e-05
2.27864e-05
2.27864e-05
2.27864e-05
3.08565e-05
3.24843e-05
2.87982e-05
2.87982e-05
2.87982e-05
2.87982e-05
2.87982e-05
2.87982e-05
2.87982e-05
2.87982e-05
2.58939e-05
2.57673e-05
2.65969e-05
2.39491e-05
3.17761e-05
3.17761e-05
3.17761e-05
3.17761e-05
3.09804e-05
3.09804e-05
3.09804e-05
3.09804e-05
2.38976e-05
2.38976e-05
2.38976e-05
2.38976e-05
3.19962e-05
2.50131e-05
2.50131e-05
2.50131e-05
2.50131e-05
3.40905e-05
3.40905e-05
3.40905e-05
3.40905e-05
3.19006e-05
3.20114e-05
3.18072e-05
3.19967e-05
3.39521e-05
3.30272e-05
3.54574e-05
3.54574e-05
3.54574e-05
3.54574e-05
3.24955e-05
3.24955e-05
3.24955e-05
3.24955e-05
3.05485e-05
3.20802e-05
2.55527e-05
3.06738e-05
3.06738e-05
3.06738e-05
3.06738e-05
2.8163e-05
2.8163e-05
2.8163e-05
2.8163e-05
3.66238e-05
3.78197e-05
3.86358e-05
3.26284e-05
3.557e-05
3.38185e-05
3.38185e-05
3.38185e-05
3.38185e-05
2.99207e-05
2.49465e-05
2.49465e-05
2.49465e-05
2.49465e-05
3.00481e-05
3.51787e-05
3.0468e-05
3.05843e-05
2.95008e-05
2.79278e-05
3.27799e-05
3.27799e-05
3.27799e-05
3.27799e-05
2.99277e-05
2.99277e-05
2.99277e-05
2.99277e-05
2.75887e-05
2.75887e-05
2.75887e-05
2.75887e-05
2.96367e-05
3.32462e-05
3.32462e-05
3.33332e-05
3.33332e-05
3.32462e-05
3.33332e-05
3.32462e-05
3.33332e-05
3.04634e-05
3.04634e-05
3.17278e-05
3.1714e-05
4.31511e-05
2.59226e-05
2.59226e-05
2.59226e-05
2.59226e-05
3.96262e-05
3.07571e-05
3.07571e-05
3.07571e-05
3.07571e-05
3.44962e-05
2.48394e-05
2.48394e-05
2.48394e-05
2.48394e-05
2.48394e-05
2.48394e-05
2.48394e-05
2.48394e-05
4.13365e-05
4.13365e-05
4.13365e-05
4.13365e-05
2.74716e-05
2.74716e-05
2.74716e-05
2.74716e-05
2.95256e-05
3.24357e-05
3.01669e-05
3.46609e-05
3.55058e-05
4.22243e-05
2.83579e-05
4.36259e-05
3.11844e-05
2.77573e-05
3.86276e-05
3.86276e-05
4.30204e-05
4.30204e-05
3.67692e-05
2.70856e-05
3.67692e-05
2.70856e-05
3.67694e-05
2.70837e-05
3.67694e-05
2.70837e-05
3.72793e-05
2.75169e-05
2.75169e-05
2.75169e-05
2.75169e-05
3.12695e-05
3.1726e-05
3.12695e-05
3.1726e-05
3.17134e-05
3.12894e-05
3.17315e-05
3.1313e-05
3.35921e-05
3.35921e-05
3.35921e-05
3.35921e-05
4.08048e-05
2.60538e-05
4.08048e-05
4.08048e-05
2.60538e-05
2.60538e-05
4.08048e-05
2.60538e-05
3.20124e-05
3.0777e-05
2.72985e-05
2.72985e-05
2.70674e-05
2.70829e-05
3.47275e-05
3.3947e-05
3.3947e-05
3.3947e-05
3.3947e-05
2.67346e-05
3.10704e-05
3.52209e-05
3.03194e-05
3.52316e-05
3.03164e-05
3.05486e-05
2.36161e-05
3.19265e-05
3.24593e-05
3.01209e-05
3.00823e-05
3.00823e-05
3.00823e-05
3.00823e-05
3.18796e-05
3.86944e-05
3.54794e-05
3.86944e-05
3.54794e-05
3.86944e-05
3.54794e-05
3.86944e-05
3.54794e-05
3.87263e-05
3.87263e-05
3.87263e-05
3.87263e-05
2.45867e-05
2.45867e-05
2.75167e-05
2.75167e-05
2.45867e-05
2.45867e-05
2.75167e-05
2.75167e-05
3.22044e-05
3.11574e-05
3.22044e-05
3.11574e-05
3.22044e-05
3.11574e-05
3.22044e-05
3.11574e-05
3.13455e-05
2.89774e-05
2.89774e-05
2.89774e-05
2.89774e-05
4.24761e-05
3.44761e-05
4.29357e-05
3.46079e-05
4.23568e-05
3.4386e-05
4.28988e-05
3.4601e-05
2.92655e-05
2.92655e-05
2.92655e-05
2.92655e-05
3.44607e-05
2.85273e-05
3.44607e-05
2.85273e-05
2.85596e-05
3.72715e-05
2.85596e-05
3.72715e-05
2.39954e-05
2.39954e-05
2.39954e-05
2.39954e-05
3.00761e-05
2.31952e-05
2.66852e-05
2.62886e-05
2.62886e-05
2.62886e-05
2.62886e-05
2.92487e-05
2.92487e-05
2.92487e-05
2.92487e-05
2.5283e-05
2.55806e-05
2.55806e-05
2.55806e-05
2.55806e-05
2.84497e-05
2.59163e-05
3.03176e-05