/*--------------------------------*- C++ -*----------------------------------*\
| =========                 |                                                 |
| \\      /  F ield         | OpenFOAM: The Open Source CFD Toolbox           |
|  \\    /   O peration     | Version:  v2106                                 |
|   \\  /    A nd           | Website:  www.openfoam.com                      |
|    \\/     M anipulation  |                                                 |
\*---------------------------------------------------------------------------*/
FoamFile
{
    version     2.0;
    format      ascii;
    arch        "LSB;label=32;scalar=64";
    class       volScalarField;
    location    "constant";
    object      cellAspectRatio;
}
// * * * * * * * * * * * * * * * * * * * * * * * * * * * * * * * * * * * * * //

dimensions      [0 0 0 0 0 0 0];

internalField   nonuniform List<scalar> 
2658
(
4.79785
4.65765
4.36753
4.36753
4.36753
4.36753
4.50348
4.50348
4.50348
4.50348
5.44695
5.44695
5.44695
5.44695
4.60743
5.10692
5.10692
5.01579
5.03288
4.07921
4.07921
4.07921
4.07921
4.60529
4.49181
4.6974
4.97416
4.65424
4.65424
4.65424
4.65424
4.59235
4.59235
4.59235
4.59235
4.51837
4.15045
4.15045
4.15045
4.15045
4.64513
4.64513
4.64513
4.64513
4.72618
4.11541
4.63648
4.419
4.419
4.419
4.419
4.38844
4.38844
4.38844
4.38844
4.37663
4.37663
4.37663
4.37663
4.36291
4.36291
4.36291
4.36291
4.75208
4.75208
4.75208
4.75208
5.57889
5.57889
5.57889
5.57889
4.09055
3.89738
4.09055
4.09055
3.89738
3.89738
4.09055
3.89738
4.71845
5.09592
5.09592
5.09592
5.09592
5.42128
5.42128
5.42128
5.42128
4.86169
4.86169
4.84956
4.80704
4.44843
4.63974
4.44843
4.63974
4.44843
4.63974
4.44843
4.63974
5.03884
5.17115
5.17821
4.38259
4.38259
4.38259
4.38259
4.15109
4.15109
4.15109
4.15109
5.07803
4.60176
4.52528
4.49549
4.45089
4.60176
4.55266
4.52528
4.45589
4.76825
4.82117
4.73026
4.85542
4.92066
4.92066
4.92066
4.92066
4.46343
4.46343
4.46343
4.46343
4.70788
4.70788
4.70788
4.70788
4.51937
4.51937
4.51937
4.51937
4.70929
4.95749
4.95749
4.95749
4.95749
4.43626
4.43626
4.43626
4.43626
5.00689
5.00689
5.00689
5.00689
4.85598
4.79937
5.19238
5.19238
5.19238
5.19238
4.89963
4.89963
4.89976
4.89976
5.08638
6.14336
4.56161
4.6588
4.56782
4.16577
4.70234
4.35527
4.69011
4.73016
5.04707
5.09752
5.09752
5.09752
5.09752
4.61816
4.61816
4.50813
4.50813
4.61816
4.61816
4.50813
4.50813
4.23427
5.14687
5.26631
4.2385
5.64227
5.64227
5.64401
5.64401
4.62374
4.79274
4.67009
4.78856
4.78856
4.78817
4.78856
4.89194
4.89194
4.89194
4.89194
5.32787
5.25371
5.25371
5.25371
5.25371
4.97312
4.97312
4.97312
4.97312
4.51338
4.51338
4.51338
4.51338
5.32548
4.50728
4.53847
4.89837
4.45364
4.68942
4.89837
4.53847
4.74012
4.50218
4.98935
4.98935
4.98935
4.98935
5.52034
5.52034
5.52034
5.52034
5.10528
4.86186
4.86186
4.86186
4.86186
5.2459
5.2459
5.2459
5.2459
4.58371
6.18962
6.43475
4.63371
4.63371
4.63371
4.63371
6.04221
4.39953
4.81755
4.81755
4.81755
4.81755
4.62347
4.87921
4.87921
4.87921
4.87921
5.03656
5.03656
5.03656
5.03656
6.0239
6.0239
6.0239
6.0239
4.56774
4.56774
4.56774
4.56774
6.46535
4.9838
4.9838
4.9838
4.9838
5.27877
5.27877
5.27877
5.27877
5.94863
4.22039
4.22039
4.22039
4.22039
4.06212
4.6101
4.24463
4.2827
4.56694
4.56741
5.40908
5.40908
5.40908
5.40908
5.25156
5.24307
4.6134
4.6134
4.57895
4.53285
4.83507
4.83507
4.83507
4.83507
4.8084
4.8084
4.8084
4.8084
5.38143
4.50042
4.50042
4.50042
4.50042
4.64543
4.64543
4.64543
4.64543
5.4976
5.01435
5.01435
5.01435
5.01435
4.79923
4.79923
4.79923
4.79923
5.30357
5.30357
5.30357
5.30357
5.66849
5.29284
5.29284
5.29284
5.29284
4.63442
4.63442
4.63442
4.63442
4.89914
4.60913
4.47819
4.41902
5.03125
5.03125
5.03125
5.03125
4.69059
4.68437
4.45004
4.45004
4.45004
4.45004
4.41497
4.41497
4.41497
4.41497
4.60911
4.60911
4.6098
4.60911
5.01824
5.01824
5.01824
5.01824
5.16688
4.59972
4.59972
4.59972
4.59972
5.46827
4.95538
4.59311
4.59311
4.59311
4.59311
5.19353
5.19353
5.19353
5.19353
4.44205
4.46814
4.44205
4.46814
4.44205
4.46814
4.44205
4.46814
4.58871
4.58871
4.58871
4.58871
4.73517
4.73517
4.73517
4.73517
5.34129
5.34129
5.34129
5.34129
5.37963
5.37963
5.37963
5.37963
4.29097
4.31599
4.31599
4.29097
4.31599
4.29097
4.31599
4.29097
4.71344
4.71344
4.71344
4.71344
4.73286
4.73286
4.73286
4.73286
4.89546
4.89546
4.89546
4.89546
5.50197
4.69853
4.67855
4.67855
4.85802
4.85802
4.67855
4.85802
4.67855
4.85802
5.27001
4.86051
4.86051
4.86051
4.86051
4.99358
4.76735
4.76735
4.76735
4.76735
4.93923
4.93923
4.93923
4.93923
4.61646
4.61646
4.61646
4.61646
4.65523
4.65523
4.65523
4.65523
5.20277
5.20277
5.20277
5.20277
4.90624
5.0788
4.90624
5.0788
4.90624
5.0788
4.90624
5.0788
5.30464
5.47054
4.64167
4.88563
5.50448
5.50448
5.50448
5.50448
4.10328
4.08584
4.1081
4.08507
5.50885
5.50885
5.50885
5.50885
4.84234
4.84234
4.84034
4.84234
5.14819
4.91911
5.24959
5.24959
5.24959
5.24959
4.81369
4.81369
4.81369
4.81369
5.09074
4.68795
5.14185
5.14185
5.14185
5.14185
4.9121
4.9121
4.9121
4.9121
4.71814
4.95985
4.71814
4.95985
4.71814
4.71814
4.95985
4.95985
5.15678
5.15678
5.15678
5.15678
5.28614
5.28614
5.28614
5.28614
5.25698
4.75662
4.75662
4.75662
4.75662
4.72625
5.47597
5.47597
5.47597
5.47597
4.86505
4.95817
5.08313
5.20806
4.22226
4.22226
4.22226
4.22226
4.34473
4.34473
4.34473
4.34473
5.95163
5.05587
5.36683
5.36683
5.36683
5.36683
5.09401
4.73904
5.05899
5.05899
5.05899
5.05899
4.4464
4.77361
4.77361
4.77361
4.77361
5.09863
5.08779
5.10442
5.09027
4.9809
4.76454
4.76454
4.76595
4.76454
5.36416
4.89965
4.89965
4.89965
4.89965
4.82349
4.82349
4.82349
4.82349
5.60709
5.43703
4.5578
4.6366
4.5578
4.6366
4.5578
4.5578
4.6366
4.6366
5.1975
4.92804
4.92804
4.92804
4.92804
4.79031
4.79031
4.79031
4.79031
5.334
5.79761
5.79761
5.79761
5.79761
5.52266
5.51413
5.52266
5.61282
4.90427
4.90429
4.91531
4.90055
6.0827
5.14871
5.14871
5.14871
5.14871
5.7261
5.7261
5.68529
5.6661
4.89081
4.89081
5.2039
4.89081
5.2039
4.89081
5.2039
5.2039
4.43476
4.52592
4.43476
4.43476
4.52592
4.52592
4.43476
4.52592
5.36509
5.36509
5.36509
5.36509
5.60011
5.08228
5.08228
5.26341
5.1305
5.43264
5.12659
5.12659
5.12659
5.12659
5.21841
5.21629
5.61373
5.61374
5.61494
5.614
4.70547
4.70547
4.67337
4.70547
5.44017
5.44017
5.44017
5.44017
5.41719
5.41719
5.41719
5.41719
4.91283
4.91283
4.88393
4.88393
5.29893
5.29893
5.29893
5.29893
5.2592
4.94386
5.03753
4.94386
5.03753
4.94386
5.03753
4.94386
5.03753
4.81576
4.65718
5.20182
5.20182
5.20182
5.20182
6.43315
5.7576
5.26974
5.26974
4.76535
4.65859
4.8832
4.8832
4.8832
4.8832
5.03932
5.23029
5.23029
5.23029
5.23029
5.14968
5.14968
5.14968
5.14968
4.76507
4.76507
4.7559
4.75098
5.17584
5.17584
5.17584
5.17584
5.07865
5.07865
5.07865
5.07865
4.62153
4.62153
4.62153
4.62153
4.98972
4.98972
4.98972
4.98972
4.59765
4.69424
4.59765
4.69424
4.59765
4.69424
4.59765
4.69424
4.15917
4.15917
4.15917
4.15917
5.02747
5.02747
5.02747
5.02747
4.68266
4.72396
5.46068
5.46068
5.46068
5.46068
4.4568
4.4568
4.4568
4.4568
4.973
4.973
4.973
4.973
4.54804
4.67586
4.54804
4.67586
4.54804
4.67586
4.54804
4.67586
5.39042
5.46079
5.42044
5.42044
5.42044
5.42044
5.50816
4.7255
5.50816
4.7255
5.50816
4.7255
5.50816
4.7255
4.94325
4.93794
4.82751
4.74688
4.82751
4.74688
4.82751
4.74688
4.82751
4.74688
5.02129
4.73488
4.58986
4.58986
4.58986
4.58986
5.37812
5.37812
5.39041
5.37812
5.42982
5.42982
5.42959
5.42959
4.61965
4.61965
4.61965
4.61965
5.92351
5.91807
5.28592
5.28592
5.28592
5.28592
5.31973
5.31973
5.31973
5.31973
4.73187
4.84805
4.69187
4.67409
4.71227
4.69
4.69187
4.67409
4.78689
4.78689
4.78689
4.78689
4.60376
4.60376
4.60314
4.60376
5.11345
5.11345
5.11345
5.11345
5.29594
5.29594
5.24041
5.29594
4.88231
5.0544
4.30958
4.30958
4.30958
4.30958
4.64591
5.94465
6.30785
4.98183
4.91045
4.98183
4.91045
4.62868
5.24629
4.62906
5.22841
5.02982
5.02982
5.02982
5.02982
5.06029
5.06029
5.06029
5.06029
5.20285
4.61071
4.92046
4.82531
5.32579
5.86259
5.32579
5.43489
5.84385
5.86259
5.39137
5.82534
5.75018
5.54324
6.22301
5.02278
5.02278
5.02278
5.02278
6.38709
6.34432
5.89928
5.65534
5.13871
5.2399
5.2399
5.2399
5.2399
5.16345
5.13887
5.09859
5.13415
4.42301
5.1129
4.42301
5.1129
4.42301
5.1129
4.42301
5.1129
5.05952
5.05952
5.05952
5.05952
4.30493
4.90239
5.58992
5.59781
4.65984
4.65984
4.65984
4.65984
6.13279
4.9604
5.41531
5.54602
5.5631
5.5631
5.5631
5.5631
5.6845
5.99739
5.57972
5.57972
5.57972
5.57972
5.24524
4.68357
4.86088
4.69051
4.69051
4.69051
4.69051
5.52629
5.85453
5.73737
5.02311
5.02311
5.02311
5.02311
4.7459
4.7459
4.7459
4.7459
5.54444
4.42552
5.1578
5.1578
5.1578
5.1578
4.85512
4.85512
4.85512
4.85512
5.15858
5.20937
6.37932
6.37773
6.31678
6.31177
5.01865
5.93836
5.93836
5.93836
5.93836
5.139
5.139
5.139
5.139
4.59928
4.73442
4.73442
4.73442
4.73442
4.7843
4.85037
4.78428
4.96422
5.40341
5.11516
5.11516
5.11516
5.11516
5.97421
5.22852
5.22852
5.22852
5.22852
4.88997
5.00425
5.11284
4.79042
5.2372
4.79042
5.2372
4.89826
5.16857
5.09263
5.25901
5.38379
5.38379
5.38379
5.38379
6.02969
5.07156
5.07156
4.92447
4.92447
5.07156
4.92447
5.07156
4.92447
5.11545
5.11545
5.11545
5.11545
4.61249
5.84967
6.26906
5.20392
5.04883
5.04883
5.04883
5.04883
5.16889
5.16889
5.16889
5.16889
4.30954
4.33294
5.29741
5.29741
5.29741
5.29741
5.88156
5.88156
5.88156
5.88156
5.7439
5.7439
5.7439
5.7439
4.89778
4.89778
4.9014
4.89778
4.83729
4.96
4.96
4.96
4.96
4.83137
4.83137
4.83137
4.83137
5.5321
5.40302
5.40302
5.40302
5.40302
4.93489
4.93489
5.25695
4.93489
5.25695
5.25695
4.93489
5.25695
5.03856
5.03856
5.03856
5.03856
5.95672
4.7267
4.7267
4.7267
4.7267
4.49836
4.83874
4.83874
4.83874
4.83874
5.32921
5.32921
5.32921
5.32921
4.98166
4.98166
4.98166
4.98166
4.44457
6.19581
5.00411
5.00411
5.00411
5.00411
5.66973
5.54479
5.25734
5.28299
4.81002
4.81002
4.81002
4.81002
4.91222
4.91222
4.91222
4.91222
5.7676
5.7676
5.86609
5.86542
4.75869
4.75869
4.75869
4.75869
4.93493
4.93493
4.93498
4.93498
5.14201
5.14201
5.14201
5.14201
4.90909
4.92375
4.67935
4.67935
4.67935
4.67935
5.548
5.548
5.548
5.548
5.45138
4.78726
4.78726
4.78726
4.78726
4.74979
4.81956
4.81956
4.81956
4.81956
5.17165
5.64494
4.87075
5.64494
5.64494
4.87075
4.87075
5.64494
4.87075
5.0998
5.0998
5.0998
5.0998
4.74699
4.74699
4.74699
4.74699
5.70112
5.70112
5.70112
5.70112
5.05861
4.57263
4.94194
4.62532
4.66049
4.57263
4.94194
4.60734
4.79848
4.27108
4.27108
4.27108
4.27108
4.32945
4.32945
4.32945
4.32945
5.39437
5.39437
5.39437
5.39437
5.04814
5.04814
5.04814
5.04814
4.58152
4.79723
4.58152
4.79723
4.58152
4.79723
4.58152
4.79723
5.04894
4.87655
5.04894
4.87655
5.13976
4.90769
5.04894
4.87655
4.86627
4.86627
4.86627
4.86627
4.91786
4.91786
4.91786
4.91786
5.74492
5.58493
5.58493
5.58493
5.58493
5.81451
5.81451
5.81451
5.81451
4.66312
4.84842
4.97694
5.40396
5.60473
5.46639
5.46867
6.40496
6.40496
6.40496
6.40496
5.3417
5.3417
5.3417
5.3417
5.46889
5.03186
4.58654
4.71324
4.71324
4.71324
4.71324
5.9549
5.9549
5.9549
5.9549
5.57803
5.20153
6.5906
6.5906
6.5906
6.5906
5.14992
5.32982
5.14992
5.14992
5.32982
5.32982
5.14992
5.32982
5.28456
5.28456
5.02942
5.26862
5.34982
5.99799
5.99799
5.99799
5.99799
4.98959
4.98959
4.98959
4.98959
5.37941
5.37941
5.37941
5.37941
5.44513
5.4728
5.18163
5.18163
5.18163
5.18163
4.86589
5.1781
5.1781
5.1781
5.1781
5.22842
5.15398
5.16735
5.73579
5.73579
5.72086
5.72086
4.75761
4.75761
4.75761
4.75761
4.73471
4.79991
5.28789
5.28789
5.28789
5.28789
5.09306
4.50442
4.97394
4.97394
4.97394
4.97394
5.01669
5.01669
5.01669
5.01669
5.38969
5.44193
5.73962
5.73961
5.73375
5.76962
5.00929
5.14755
4.93764
4.93764
4.93764
4.93764
5.62996
5.06027
5.06009
5.76556
5.54952
4.77525
4.77525
4.77525
4.77525
5.43125
5.59228
4.39249
4.39249
4.39264
4.39249
5.29907
5.54841
5.54841
5.29907
5.29907
5.54841
5.29907
5.54841
5.47414
5.49615
5.49615
5.48624
5.49615
5.47442
5.37772
5.16981
5.16981
5.16981
5.16981
5.15971
5.20861
5.20861
5.20861
5.20861
5.2165
5.14963
5.14963
5.14963
5.14963
5.33273
5.33273
5.25642
5.378
5.28784
5.28784
5.28784
5.28784
5.46533
5.46533
5.46533
5.46533
5.1823
4.89544
5.88296
5.00824
5.00824
5.00824
5.00824
4.88542
5.30581
5.35669
5.36231
5.36231
5.36231
5.36231
5.14767
5.14666
5.23257
5.23726
4.69887
4.69887
4.69887
4.69887
5.0627
5.0627
5.0627
5.0627
5.23977
5.27581
5.60407
4.93299
5.48999
4.93299
5.48999
4.93299
5.48999
4.93299
5.48999
5.05559
5.05559
5.01202
5.07877
5.85814
5.85814
5.85814
5.85814
5.04172
5.04172
5.04172
5.04172
5.24811
4.55581
5.24811
5.24811
4.55581
4.55581
5.24811
4.55581
5.57182
5.57182
5.57182
5.57182
5.09558
5.09558
5.09558
5.09558
5.88376
5.88376
5.88409
5.88409
4.96595
5.58714
5.54237
4.82676
4.82676
4.75361
4.92169
5.68739
5.68739
5.68739
5.68739
5.59961
5.59961
5.59952
5.59952
4.88893
4.88893
4.88893
4.88893
4.94024
4.94024
4.94024
4.94024
5.01497
5.2849
5.13688
5.46738
5.25168
5.46222
5.03538
5.99422
5.99422
5.99422
5.99422
5.6821
5.6821
5.6821
5.6821
4.85366
5.19508
4.78153
4.78153
4.78153
4.78153
5.3191
5.3191
5.3191
5.3191
5.28816
5.5023
5.28816
5.5023
5.28816
5.5023
5.28816
5.5023
5.58076
5.28481
4.96619
4.99184
4.98038
4.64288
4.64288
4.64288
4.64288
4.60812
5.15864
5.15864
5.15864
5.15864
5.23239
5.23239
5.41418
5.31246
4.70208
5.22253
4.70208
5.22253
5.22253
4.70208
4.70208
5.22253
6.1681
4.58649
4.39512
5.51428
5.51428
5.51428
5.51428
5.0187
5.77224
5.77224
5.77224
5.77224
5.3523
5.3523
5.77357
5.77357
5.3523
5.77357
5.3523
5.77357
5.52743
5.52743
5.52743
5.52743
5.34878
5.34878
5.34878
5.34878
5.72186
5.29087
5.29087
5.29087
5.29087
5.13666
5.13731
5.3381
5.33382
5.29066
5.40928
5.29066
5.39141
5.4401
5.4401
5.4401
5.4401
5.3945
5.3945
5.3945
5.3945
6.3169
6.3169
6.3169
6.3169
5.55643
5.12215
5.08724
5.40693
5.40693
5.40693
5.40693
5.23319
5.84373
5.47961
5.10197
5.09881
5.09925
5.52717
5.40803
5.52717
5.40803
5.52717
5.40803
5.52717
5.40803
5.25436
6.44035
6.43473
6.43422
6.29924
6.29924
6.29924
6.29924
5.52163
5.08081
5.08081
5.08081
5.08081
5.08878
5.08878
5.08878
5.08878
4.95272
4.95272
5.3078
5.3078
5.3078
5.3078
4.95272
4.95272
4.77665
5.09975
5.09975
4.8118
4.8118
5.59732
5.59731
5.65212
5.65002
5.11007
5.46432
5.33907
5.02429
5.02429
5.02429
5.02429
4.74778
4.74778
4.74749
4.74778
4.87442
4.87442
4.87442
4.87442
5.42486
5.42486
5.42486
5.42486
5.00541
5.00541
5.00541
5.00541
5.38751
5.6912
6.50364
6.50364
6.50364
6.50364
4.94812
4.94812
5.70036
5.70036
4.94812
4.94812
5.70036
5.70036
5.2582
5.2582
5.12724
5.3396
6.21575
6.21575
6.21575
6.21575
5.35768
5.35768
5.35768
5.35768
5.13223
5.13223
5.13223
5.13223
6.25031
5.15718
4.90959
4.90959
4.90959
4.90959
5.52947
5.52947
5.52947
5.52947
5.99005
5.99005
5.99005
5.99005
6.06686
4.77935
4.77935
4.77373
4.77373
5.32415
5.32415
5.32415
5.32415
5.07357
5.8424
6.21856
6.21066
6.23111
6.23366
5.50729
5.18279
5.18279
5.18279
5.18279
5.07328
5.11169
5.52482
4.96241
5.59604
5.59604
5.59604
5.59604
5.47595
5.05504
5.54709
5.35044
4.83622
4.83622
4.83622
4.83622
5.36903
5.40159
5.16902
5.92638
5.92638
5.92638
5.92638
5.4106
5.4106
5.4106
5.4106
5.95474
5.95474
5.95474
5.95474
5.19889
5.28534
5.31549
4.99612
4.99612
4.99612
4.99612
5.22714
5.22714
5.22714
5.22714
6.38492
6.38492
6.38492
6.38492
6.1378
5.907
5.43378
5.43378
5.43378
5.43378
4.86602
5.73619
5.73532
5.68089
5.83705
5.56031
5.25044
5.25044
5.25044
5.25044
6.29957
6.29957
6.39611
6.40676
5.14639
5.14639
5.14639
5.14639
5.3804
5.3804
5.3804
5.3804
5.08003
5.08003
5.08003
5.08003
5.60167
5.60167
5.60167
5.60167
5.51165
5.51165
5.51165
5.51165
5.19614
5.19614
5.19614
5.19614
5.27414
5.40907
5.28041
5.93838
5.93838
5.93838
5.93838
6.376
6.376
6.376
6.376
5.36937
5.36937
5.36937
5.36937
5.30495
5.30495
5.30495
5.30495
5.49592
5.93199
5.40172
5.4221
5.4221
5.4221
5.4221
5.93086
5.94043
5.15978
5.10095
5.10095
5.10095
5.10095
4.75221
5.28211
5.28211
5.28211
5.28211
5.72676
5.41186
5.41186
5.41186
5.41186
5.55582
5.42231
5.41758
5.4218
5.42147
5.42287
5.63503
5.69585
5.43935
6.11911
5.57681
5.90203
5.90203
5.90203
5.90203
5.34328
5.34328
5.34328
5.34328
6.18351
6.18351
5.8212
5.8212
6.18351
6.18351
5.8212
5.8212
5.45681
4.92048
5.33903
5.33903
5.33903
5.33903
4.83323
4.93407
5.59302
5.15223
5.10935
5.33634
5.33634
5.33624
5.33777
5.65768
5.65768
5.00904
5.2783
5.92614
5.40144
5.98795
5.30686
5.42403
5.30686
5.30705
5.42334
5.42403
5.30795
5.42375
5.7728
4.93442
5.7728
5.67024
4.93442
5.06678
5.73502
4.95801
5.4181
5.4181
5.4181
5.4181
5.50323
5.81449
5.71412
5.77093
5.6761
5.52934
5.52934
5.52934
5.52934
5.24789
5.04148
5.17901
5.17901
5.17901
5.17901
5.56575
5.54831
5.54831
5.54831
5.54831
5.42445
5.42445
5.49209
5.50169
5.59079
5.59079
5.58842
5.58731
5.40782
5.18499
5.24547
5.45693
5.24547
5.45693
5.45693
5.24547
5.24547
5.45693
6.24543
5.73113
6.24568
5.73079
6.24564
5.73079
5.40537
5.40429
6.35437
5.80515
6.23665
6.14078
5.51303
5.51303
5.46845
5.46845
5.51303
5.46845
5.51303
5.46845
6.27131
6.27131
6.27131
6.27131
4.55969
4.91376
5.19218
4.91376
5.19218
4.91376
5.19218
4.91376
5.19218
5.4875
5.28331
5.4875
5.28331
5.4875
5.28331
5.4875
5.28331
5.42962
5.42962
5.42962
5.42962
5.47077
5.47077
5.19395
5.19395
5.47077
5.19395
5.47077
5.19395
5.51546
5.51546
5.51546
5.51546
4.74784
5.32819
4.7481
5.32839
5.70492
5.81971
5.25008
5.25008
5.25008
5.25008
5.26547
5.65431
5.26547
5.26547
5.65431
5.65431
5.26547
5.65431
5.29832
5.29832
5.31103
5.31103
6.29032
5.45306
5.45306
5.45306
5.45306
5.35193
5.35193
5.35193
5.35193
5.10764
4.75916
5.3666
4.72856
5.55264
5.55688
5.54398
5.41449
5.41449
5.41449
5.41449
6.76709
6.76709
6.76709
6.76709
6.26346
6.26346
6.26346
6.26346
4.97303
5.23245
5.92607
5.92607
5.80507
5.85294
6.22573
6.22573
6.20651
6.24917
6.2079
5.68742
5.68742
5.68742
5.68742
5.7502
5.7502
5.7502
5.7502
5.71895
5.92815
5.74886
5.81316
6.13258
5.79973
5.73809
5.73747
5.90756
5.89159
5.62786
5.62786
5.62786
5.62786
5.69247
5.69247
5.69247
5.69247
4.85659
4.85659
4.85659
4.85659
5.84887
5.84887
5.84887
5.84887
5.04881
6.44782
5.2353
5.89292
5.89292
5.89292
5.89292
5.3608
5.5021
4.99921
4.99921
5.61624
5.61624
5.61624
5.61624
4.99921
4.99921
6.61416
6.61416
6.61416
6.61416
5.61091
5.46418
5.93963
5.93963
5.93963
5.93963
5.93963
5.93963
5.93963
5.93963
6.20447
6.19923
6.10568
6.34661
5.63899
5.63899
5.63899
5.63899
5.66383
5.66383
5.66383
5.66383
6.64159
6.64159
6.64159
6.64159
5.58499
6.38888
6.38888
6.38888
6.38888
5.40157
5.40157
5.40157
5.40157
5.55196
5.54124
5.55907
5.54255
5.4775
5.51395
5.29611
5.29611
5.29611
5.29611
5.51028
5.51028
5.51028
5.51028
5.687
5.54903
6.19505
5.71657
5.71657
5.71657
5.71657
6.00723
6.00723
6.00723
6.00723
5.19261
5.11669
5.11304
5.48137
5.35867
5.36729
5.36729
5.36729
5.36729
5.72394
6.50875
6.50875
6.50875
6.50875
5.81144
5.33791
5.70897
5.69896
5.81661
6.02294
5.53323
5.53323
5.53323
5.53323
5.79422
5.79422
5.79422
5.79422
6.08413
6.08413
6.08413
6.08413
5.69943
5.41882
5.41882
5.40161
5.40161
5.41882
5.40161
5.41882
5.40161
5.79076
5.79076
5.65601
5.65749
4.85136
6.34168
6.34168
6.34168
6.34168
4.98711
5.62142
5.62142
5.62142
5.62142
5.37318
6.50569
6.50569
6.50569
6.50569
6.50569
6.50569
6.50569
6.50569
4.88518
4.88518
4.88518
4.88518
5.96421
5.96421
5.96421
5.96421
5.85561
5.68091
5.70761
5.43208
5.35523
4.86178
5.862
4.79002
5.79452
5.90009
5.10399
5.10399
4.84517
4.84517
5.17794
6.08125
5.17794
6.08125
5.17794
6.08154
5.17794
6.08154
5.13599
5.94942
5.94942
5.94942
5.94942
5.64355
5.585
5.64355
5.585
5.58637
5.64149
5.58522
5.63967
5.50912
5.50912
5.50912
5.50912
4.91653
6.32446
4.91653
4.91653
6.32446
6.32446
4.91653
6.32446
5.70934
5.85957
6.11191
6.11191
6.08777
6.0856
5.30327
5.42836
5.42836
5.42836
5.42836
5.98148
5.58791
5.29573
5.76843
5.29496
5.76898
5.6347
6.47717
5.54627
5.50235
5.67172
5.69564
5.69564
5.69564
5.69564
5.52862
5.08782
5.25103
5.08782
5.25103
5.08782
5.25103
5.08782
5.25103
5.05053
5.05053
5.05053
5.05053
6.31537
6.31537
6.06567
6.06567
6.31537
6.31537
6.06567
6.06567
5.48967
5.56876
5.48967
5.56876
5.48967
5.56876
5.48967
5.56876
5.5787
5.77655
5.77655
5.77655
5.77655
4.88132
5.38669
4.86164
5.37534
4.88651
5.39444
4.86373
5.37581
5.74486
5.74486
5.74486
5.74486
5.31912
5.87624
5.31912
5.87624
5.93627
5.14874
5.93627
5.14874
6.34791
6.34791
6.34791
6.34791
5.66785
6.45321
6.01038
6.15063
6.15063
6.15063
6.15063
5.77919
5.77919
5.77919
5.77919
6.29371
6.35144
6.35144
6.35144
6.35144
5.89608
6.09423
5.6418
5.58588
5.58588
5.58588
5.58588
5.9915
5.62156
5.89738
5.96835
5.96835
5.96835
5.96835
6.20761
5.79848
5.79848
5.79741
5.79848
6.57949
6.30361
6.30361
6.30361
6.30361
5.89787
5.89787
5.89787
5.89787
5.64584
5.64584
5.64584
5.64584
5.33149
5.33149
5.33149
5.33149
5.74073
6.04686
6.79829
5.57692
6.26665
6.07503
5.96587
6.02956
5.73647
5.78258
5.73647
5.78258
5.73647
5.78258
5.73647
5.78258
5.88833
5.82569
5.88833
5.82569
5.88844
5.82591
5.88756
5.82659
5.7274
5.7274
5.71674
5.7274
5.17517
6.00306
5.16051
5.16051
5.15698
5.16051
5.66623
5.43313
5.6188
5.6188
5.6188
5.6188
5.70443
5.70442
6.19532
5.70446
6.43518
6.42657
6.42657
6.42657
6.42657
6.1032
6.1028
5.91125
6.10284
5.89012
5.94971
5.88856
5.88856
5.88856
5.88856
5.46227
5.46227
5.46227
5.46227
5.65077
5.72124
5.72124
5.65077
6.36194
6.36194
6.36194
5.65077
6.36194
6.36194
5.65077
6.36194
6.36194
6.36194
5.72124
5.72124
6.09526
6.09526
6.09526
6.09526
5.95091
5.95091
5.95091
5.95091
5.65434
5.65434
5.64689
5.65434
5.21315
5.14005
6.19123
5.69248
5.40063
5.30508
6.53508
5.20022
4.92829
5.20022
4.92806
5.40952
5.25651
5.40952
5.25651
5.40952
5.25651
5.40952
5.25651
6.35678
6.35678
6.41126
6.41362
6.67977
6.22747
6.65265
6.25886
6.08671
6.23386
7.02618
7.02618
6.2152
6.2152
7.02618
7.02618
6.2152
6.2152
5.41341
6.10786
6.0026
7.3891
5.88895
5.86589
5.39331
5.86589
5.39331
5.38332
5.85907
5.84584
5.38216
6.65215
6.40846
6.40846
6.40846
6.40846
5.74012
5.73906
5.59927
6.87152
5.94687
5.55253
6.14922
5.98331
5.38809
5.6988
6.43978
6.03904
5.9317
6.74779
6.71589
6.07523
7.43877
6.43518
6.61828
5.53784
5.12962
6.26768
6.26768
6.26768
6.26768
6.87054
6.00938
5.9883
6.12929
6.4997
6.67832
6.06885
6.48756
7.48114
6.90308
6.72217
)
;

boundaryField
{
    frontAndBack
    {
        type            zeroGradient;
    }
    bottom
    {
        type            zeroGradient;
    }
    right
    {
        type            zeroGradient;
    }
    top
    {
        type            zeroGradient;
    }
    left
    {
        type            zeroGradient;
    }
}


// ************************************************************************* //
