/*--------------------------------*- C++ -*----------------------------------*\
| =========                 |                                                 |
| \\      /  F ield         | OpenFOAM: The Open Source CFD Toolbox           |
|  \\    /   O peration     | Version:  2106                                  |
|   \\  /    A nd           | Website:  www.openfoam.com                      |
|    \\/     M anipulation  |                                                 |
\*---------------------------------------------------------------------------*/
FoamFile
{
    version     2.0;
    format      ascii;
    arch        "LSB;label=32;scalar=64";
    class       volScalarField;
    location    "constant";
    object      cellDeterminant;
}
// * * * * * * * * * * * * * * * * * * * * * * * * * * * * * * * * * * * * * //

dimensions      [0 0 0 0 0 0 0];

internalField   nonuniform List<scalar> 
2658
(
1.29066e-36
1.29034e-39
0
2.58165e-36
1.03266e-35
2.8685e-37
0
5.33557e-36
1.33389e-36
1.33389e-36
0
1.45448e-36
0
1.45448e-36
0
5.79093e-36
1.44773e-36
1.44122e-36
0
9.8146e-37
3.92584e-36
8.83314e-36
9.8146e-37
3.6862e-37
1.36032e-36
5.91456e-36
1.16245e-36
1.59522e-36
1.59522e-36
1.59522e-36
6.38086e-36
1.31963e-36
0
5.27853e-36
0
0
4.97439e-36
4.97439e-36
1.2436e-36
0
5.6181e-36
0
5.6181e-36
2.19457e-38
1.41541e-36
3.32018e-36
5.6566e-36
4.97095e-36
1.24274e-36
0
1.11846e-35
1.35794e-36
1.35794e-36
1.35794e-36
1.35794e-36
4.76397e-36
4.76397e-36
4.8387e-36
0
0
1.14422e-36
4.02267e-36
0
0
1.10214e-35
4.8984e-36
1.10214e-35
1.31706e-36
3.29264e-37
1.31706e-36
3.29264e-37
0
0
9.32782e-36
4.1457e-36
1.02427e-36
4.09706e-36
9.32782e-36
1.02427e-36
1.41284e-35
3.83551e-37
0
0
3.83551e-37
1.61137e-36
0
0
0
9.86203e-38
0
1.54653e-36
5.88077e-36
5.55668e-36
0
0
0
5.55668e-36
1.33324e-35
1.38917e-36
5.9255e-36
5.39383e-36
8.02544e-38
3.64169e-37
1.41071e-36
0
0
5.64285e-36
4.67527e-36
0
4.67527e-36
0
3.90668e-37
6.16396e-36
5.63141e-36
3.70651e-37
1.39335e-36
0
3.79031e-37
0
1.26236e-35
0
1.74215e-36
1.15628e-36
0
1.16156e-36
1.04541e-35
7.25977e-38
1.81494e-36
5.74013e-36
5.74013e-36
2.29605e-35
1.43503e-36
1.94439e-38
0
0
0
7.82872e-37
1.39177e-36
1.39177e-36
0
1.52726e-36
1.79803e-37
1.99781e-38
5.77367e-36
1.99781e-38
5.11386e-36
7.99041e-38
3.9153e-36
5.11386e-36
1.42601e-36
5.70406e-36
1.42601e-36
5.70406e-36
1.31767e-36
1.3865e-36
3.22855e-37
2.9057e-36
2.9057e-36
0
0
1.97551e-38
0
0
3.37888e-37
1.52945e-36
1.32671e-36
0
6.19255e-36
4.86053e-36
1.41489e-36
1.2155e-36
6.11228e-36
1.58374e-36
0
1.45626e-36
5.82506e-36
1.45626e-36
2.2186e-53
4.84242e-36
4.84242e-36
0
1.2133e-36
1.08954e-35
1.21061e-36
0
0
2.95949e-36
6.29077e-36
1.43025e-36
7.78764e-38
1.23657e-35
0
0
0
7.53768e-37
3.84718e-37
1.39353e-35
2.07643e-36
7.40849e-36
0
6.56254e-36
6.18865e-36
1.54716e-36
0
6.18865e-36
4.19707e-37
2.07349e-36
2.07349e-36
2.07349e-36
0
3.05044e-37
0
2.7454e-36
3.05044e-37
0
0
0
0
0
3.23541e-36
3.20981e-37
1.64763e-36
7.13925e-37
9.62829e-38
1.02977e-37
3.93202e-36
0
0
1.21726e-36
0
1.21726e-36
1.21726e-36
1.75106e-36
1.75106e-36
1.09441e-37
9.84971e-37
5.16193e-36
4.30449e-37
1.7218e-36
3.87404e-36
0
0
1.28998e-36
1.28998e-36
1.28998e-36
5.88321e-36
0
0
2.65834e-37
6.64584e-36
4.25334e-36
4.25334e-36
4.69105e-36
8.28856e-36
1.66962e-36
6.67847e-36
1.66962e-36
0
5.24951e-36
4.49377e-37
0
0
1.79751e-36
0
1.21274e-36
0
1.21274e-36
3.34096e-52
0
5.62981e-37
0
1.54323e-36
3.85809e-37
1.54323e-36
3.85809e-37
5.31818e-36
3.77105e-36
0
4.19005e-37
6.70409e-36
1.45403e-36
1.30862e-35
1.54519e-51
0
0
0
0
3.15972e-37
3.15972e-37
7.26501e-36
5.85173e-36
1.24043e-36
0
0
0
0
8.32028e-39
2.12999e-36
0
9.10284e-37
1.61641e-36
1.42115e-36
1.33638e-51
1.38167e-36
5.27385e-36
0
1.42494e-36
0
1.42494e-36
1.67048e-52
0
1.67048e-52
0
9.83637e-38
3.34096e-52
0
1.67048e-52
0
6.19294e-36
1.54823e-36
1.00229e-51
1.54823e-36
0
0
0
0
9.27907e-38
1.504e-36
0
3.38401e-36
3.38401e-36
1.49466e-36
2.39145e-35
1.49466e-36
1.34519e-35
5.44156e-36
3.27796e-37
0
3.75858e-52
8.19491e-36
4.86826e-36
4.86826e-36
1.21707e-36
4.86826e-36
0
1.16608e-36
1.28387e-36
1.31396e-35
1.46286e-36
2.98542e-38
0
0
6.4767e-36
1.39351e-36
1.00229e-51
1.00229e-51
6.68191e-52
0
0
8.8109e-36
0
3.52436e-37
0
0
0
0
5.82244e-36
1.45561e-36
5.82244e-36
1.45561e-36
1.46201e-36
3.45928e-36
1.53746e-36
1.88339e-35
3.84365e-37
2.64245e-36
1.63624e-36
0
5.45199e-36
0
3.06675e-36
0
0
1.44464e-36
0
0
5.5538e-36
0
3.47112e-37
0
8.67781e-36
0
0
1.23084e-36
1.23084e-36
0
4.92337e-36
0
4.27141e-36
0
0
1.81366e-36
1.33638e-51
2.67276e-51
0
1.73652e-36
0
6.94607e-36
1.73652e-36
0
7.87218e-38
7.87218e-38
0
7.87218e-38
0
6.37647e-36
0
0
0
0
0
0
0
6.68191e-52
2.75531e-52
4.94015e-36
4.94015e-36
4.94015e-36
4.94015e-36
0
0
0
0
1.34564e-35
1.49516e-36
5.28123e-36
5.98062e-36
1.32031e-36
1.49516e-36
0
0
0
0
0
3.85175e-37
1.22301e-35
0
0
5.43558e-36
1.1307e-35
3.06722e-40
5.02534e-36
0
0
5.0579e-36
1.97574e-38
5.0579e-36
1.56155e-36
1.77488e-52
0
0
0
1.04163e-37
8.43723e-36
6.66646e-36
3.71028e-37
1.65371e-36
1.48411e-36
0
3.71028e-37
2.67276e-51
0
6.61482e-36
1.12679e-37
0
7.63019e-37
1.33638e-51
1.16442e-37
0
1.40894e-35
7.45226e-36
1.19333e-36
0
4.77978e-36
1.18282e-36
8.53905e-36
5.3369e-37
5.3369e-37
2.13476e-36
1.62403e-36
6.49613e-36
1.62376e-36
1.01502e-35
0
1.33927e-36
5.64114e-36
0
5.64114e-36
8.81428e-38
8.21478e-36
0
5.25746e-36
0
6.83774e-36
7.65503e-37
3.35101e-36
1.48934e-36
3.35101e-36
1.48934e-36
0
1.72514e-36
2.69553e-36
0
0
1.33638e-51
0
2.28386e-53
0
0
1.33638e-51
6.68191e-52
4.8811e-37
1.95244e-36
0
7.80976e-36
0
4.57421e-37
0
4.57421e-37
1.79352e-36
1.46813e-36
0
0
3.67031e-37
5.63658e-36
1.33638e-51
0
6.68191e-52
0
0
0
5.14892e-36
5.13332e-36
0
1.02549e-35
4.55772e-36
2.84858e-37
0
0
5.11015e-39
0
1.05916e-35
0
4.54041e-36
4.54041e-36
4.54041e-36
1.1351e-36
0
7.77993e-36
1.33638e-51
1.77128e-36
0
0
1.43418e-36
1.23649e-35
1.37387e-36
0
1.37387e-36
9.60065e-36
6.12916e-36
3.84045e-37
3.84109e-37
1.05135e-37
1.59754e-36
0
0
0
1.55836e-36
3.64279e-37
5.82846e-36
1.45711e-36
1.45711e-36
0
0
1.20406e-35
1.33784e-36
5.3534e-37
0
1.43742e-36
0
1.43742e-36
5.76223e-36
0
0
1.2965e-35
0
4.02583e-37
0
0
0
0
4.75976e-36
0
2.67736e-36
2.97485e-37
8.35239e-52
2.27905e-36
2.24385e-36
0
1.36954e-40
1.87296e-36
0
1.87296e-36
2.13397e-36
1.63207e-36
6.52832e-36
0
1.64036e-36
0
0
1.66294e-36
1.66294e-36
4.15736e-37
2.12155e-36
5.30387e-37
0
6.47878e-37
1.5123e-36
1.5123e-36
0
1.33638e-51
1.5277e-36
2.33867e-51
0
1.5277e-36
3.55458e-37
8.39882e-38
3.19912e-36
2.27493e-35
1.20943e-35
4.11542e-36
0
4.11542e-36
1.71271e-36
4.28177e-37
6.85083e-36
6.85083e-36
8.79878e-36
0
1.73179e-36
0
0
1.87371e-36
1.68155e-36
1.68155e-36
1.68155e-36
1.68155e-36
0
1.76663e-36
7.59036e-36
1.89759e-36
4.74032e-37
0
1.31837e-35
1.46485e-36
0
0
0
1.87181e-36
0
0
1.7534e-36
0
1.7534e-36
0
1.56808e-36
0
1.52414e-36
1.52414e-36
0
0
1.10947e-37
7.1006e-36
1.52898e-36
3.32188e-36
1.56538e-36
3.69098e-37
3.5221e-36
3.32188e-36
3.5221e-36
3.69098e-37
6.26151e-36
0
0
1.40965e-36
1.40965e-36
1.33638e-51
1.40965e-36
1.33734e-37
1.94514e-36
0
0
0
9.70131e-36
5.55967e-36
0
5.55967e-36
5.55967e-36
1.33638e-51
1.96412e-51
1.68258e-36
1.68258e-36
2.67276e-51
0
5.69801e-36
0
7.21154e-36
3.7167e-37
3.34503e-36
1.45082e-36
3.51544e-37
1.12723e-37
0
5.52343e-36
0
0
3.83893e-36
4.26548e-37
1.70619e-36
3.52317e-37
1.26834e-35
3.17085e-36
1.26834e-35
6.79763e-36
0
3.82367e-36
4.24852e-37
0
0
6.20353e-36
1.01463e-35
9.69302e-36
1.62341e-36
6.20353e-36
4.05854e-37
1.25007e-36
0
0
0
4.32827e-37
0
4.32827e-37
1.73131e-36
1.44034e-36
1.31563e-35
0
6.68191e-52
0
0
0
1.06609e-35
1.18455e-36
4.73819e-36
7.25967e-36
0
2.83581e-36
2.83581e-36
0
0
3.20242e-37
1.36722e-36
2.88218e-36
2.27603e-51
1.28097e-36
2.67276e-51
1.06057e-37
1.59662e-36
7.53455e-36
1.11915e-35
4.70909e-37
7.53455e-36
0
4.06828e-37
0
0
1.19048e-36
1.62731e-36
1.32276e-37
0
0
4.19064e-40
1.28695e-36
1.25595e-35
0
0
1.28695e-36
0
1.28695e-36
1.3955e-36
3.18175e-37
8.15688e-36
3.8897e-37
3.8897e-37
1.40029e-35
0
0
1.94851e-36
0
1.94851e-36
4.42727e-37
4.42727e-37
4.3166e-37
0
0
1.25286e-51
1.82709e-51
0
0
5.93531e-40
1.10184e-36
0
3.06068e-36
7.83534e-36
4.9309e-37
0
4.9309e-37
1.97236e-36
4.17423e-37
4.4328e-37
1.33638e-51
0
1.643e-36
1.47767e-35
6.68191e-52
1.59152e-36
0
1.51554e-35
0
1.901e-36
0
0
0
1.5321e-36
3.72412e-36
1.65516e-36
6.62065e-36
4.13791e-37
0
0
0
0
0
1.71334e-36
0
0
0
1.33285e-36
3.31835e-37
1.65987e-36
2.67276e-51
0
0
1.61128e-36
0
0
7.02534e-36
2.40308e-36
1.09188e-37
0
5.29071e-39
1.32268e-37
4.76164e-38
1.6294e-36
0
0
1.6294e-36
4.50503e-36
4.84888e-36
0
6.52308e-36
2.07749e-36
0
5.19372e-37
0
0
5.68405e-37
2.02809e-36
2.72315e-36
7.16312e-36
1.04128e-35
1.30221e-36
2.58532e-36
0
1.6546e-36
0
0
2.41532e-36
0
1.71535e-36
1.05996e-35
1.36036e-36
6.68191e-52
0
1.36036e-36
6.86839e-36
0
0
0
0
0
5.68293e-36
6.73175e-36
3.55183e-37
4.20735e-37
5.68293e-36
0
1.59451e-36
1.59451e-36
6.37803e-36
1.59451e-36
0
3.06537e-37
4.68273e-37
4.69245e-37
3.25097e-36
1.44488e-36
3.25097e-36
0
5.78536e-36
0
0
0
0
1.6959e-36
0
6.7836e-36
0
1.03695e-35
2.67276e-51
7.60911e-36
2.97231e-38
1.45643e-36
4.92901e-37
1.39232e-36
2.33729e-38
1.49788e-36
1.29251e-35
1.49788e-36
1.31649e-36
3.27768e-38
2.1725e-36
3.06252e-36
1.69402e-36
1.69402e-36
0
0
1.7279e-35
5.64213e-36
3.1737e-36
5.64213e-36
1.84953e-36
5.70089e-36
1.69785e-36
4.24462e-37
0
4.24462e-37
8.51978e-37
6.05851e-36
9.46642e-38
0
1.56155e-36
1.33638e-51
5.04209e-37
5.04256e-37
5.05942e-37
5.06079e-37
4.68305e-37
0
6.02208e-37
5.41987e-36
5.41987e-36
7.99046e-36
0
0
0
0
0
0
0
0
1.69406e-36
7.07917e-36
6.77618e-36
1.8663e-36
4.82874e-37
8.86318e-37
1.57568e-36
8.86318e-37
1.57568e-36
6.49446e-37
2.74028e-36
0
1.33638e-51
1.09611e-37
1.51768e-36
0
0
1.71703e-36
0
4.29256e-37
1.21353e-37
1.10952e-37
0
1.82154e-36
0
0
0
0
0
1.1429e-37
1.9537e-36
0
0
0
0
0
0
0
7.09753e-36
1.77438e-36
7.09753e-36
0
4.80785e-36
0
4.93424e-37
1.542e-35
1.52815e-36
1.37533e-35
1.15566e-35
0
4.52474e-37
1.80989e-36
1.80989e-36
0
1.1039e-35
3.43353e-37
2.71276e-36
0
1.33638e-51
9.76593e-37
5.65975e-37
5.65975e-37
2.2639e-36
5.09378e-36
1.73268e-36
1.73268e-36
1.73268e-36
1.73268e-36
0
2.81617e-38
1.80405e-36
1.80235e-36
1.50108e-36
0
0
0
0
6.56784e-36
8.31243e-36
0
0
1.91656e-36
1.67345e-36
1.67345e-36
1.67345e-36
1.67345e-36
0
4.35847e-37
2.00033e-36
3.92262e-36
2.00033e-36
0
0
0
0
1.89367e-36
4.26075e-36
0
1.55046e-36
1.30772e-39
3.34776e-37
1.30772e-39
0
4.72102e-36
3.46615e-37
1.38646e-36
3.46615e-37
1.38646e-36
0
0
7.01753e-36
5.3728e-36
5.87105e-36
3.30246e-36
3.6694e-37
3.6694e-37
5.81862e-36
2.37425e-36
0
6.68191e-52
4.20569e-36
1.16825e-35
0
3.37228e-51
1.50054e-36
0
5.001e-36
7.81406e-38
0
7.81406e-36
9.79708e-38
9.79708e-38
0
0
3.28848e-38
2.66367e-36
0
2.18603e-36
1.58545e-36
0
1.58545e-36
0
3.56464e-36
0
3.56463e-36
0
1.78991e-36
0
2.67276e-51
4.02729e-36
0
4.12973e-37
0
1.40175e-36
1.26158e-35
0
3.5516e-37
3.5516e-37
3.5516e-37
3.5516e-37
1.05457e-37
5.59169e-36
0
0
8.73701e-36
0
1.03726e-37
1.65962e-36
0
1.03726e-37
0
0
9.92911e-37
2.06023e-36
1.57129e-51
0
5.40585e-36
2.06023e-36
9.92911e-37
0
1.50343e-51
1.62859e-36
1.62859e-36
6.5662e-36
0
1.46228e-35
6.36572e-36
7.5808e-36
4.2642e-36
4.738e-37
1.1845e-35
1.65835e-36
6.19932e-36
1.87306e-35
3.92517e-37
1.01077e-37
6.19932e-36
8.97739e-36
1.4172e-35
5.2308e-36
4.5509e-36
0
1.13773e-36
7.11078e-36
0
0
1.25788e-36
1.42003e-36
4.5712e-37
1.82848e-36
4.5712e-37
1.82848e-36
1.29462e-51
5.41247e-36
0
5.41247e-36
3.84458e-37
6.93298e-36
6.15133e-36
0
1.53783e-36
4.33311e-37
3.84458e-37
6.93298e-36
1.89282e-36
2.67276e-51
2.95753e-38
1.60845e-36
0
1.62245e-36
1.89282e-36
0
1.71244e-36
2.67568e-38
1.71244e-36
1.31108e-36
0
1.84728e-36
1.63634e-36
1.84728e-36
4.48417e-36
4.92104e-37
4.42894e-36
1.96842e-36
1.96842e-36
4.84356e-37
1.21089e-35
4.84356e-37
4.84356e-37
1.42887e-36
1.56717e-36
2.25614e-38
0
1.7638e-36
0
1.75246e-36
3.93376e-37
1.5735e-36
3.93376e-37
1.5735e-36
1.75425e-36
1.75425e-36
1.75425e-36
1.33638e-51
1.98369e-52
1.83535e-36
0
6.66886e-52
0
0
9.20068e-52
6.49459e-37
0
5.84513e-36
6.49459e-37
1.22699e-37
4.56148e-37
1.98591e-38
0
0
0
3.99015e-36
1.91633e-36
4.4335e-37
0
1.19771e-37
1.91633e-36
0
1.91633e-36
0
9.96045e-36
1.84938e-36
1.96122e-36
0
2.68435e-38
1.71798e-36
2.17432e-36
2.68435e-38
0
9.36417e-38
1.49827e-36
0
7.48803e-36
0
2.92501e-38
0
2.11197e-36
4.16396e-37
0
6.54252e-36
6.56815e-36
0
6.35144e-36
1.82757e-36
0
1.33638e-51
1.82757e-36
3.87372e-36
6.88027e-36
4.70348e-37
1.79575e-36
0
4.34069e-37
1.73627e-36
1.49529e-36
1.34576e-35
1.49529e-36
1.49529e-36
0
1.02854e-35
0
1.22632e-35
4.90527e-37
1.96211e-36
6.28665e-36
1.23517e-35
0
1.70258e-35
1.61191e-36
4.93647e-36
1.8664e-36
1.8664e-36
1.33638e-51
7.46561e-36
8.43114e-39
2.26151e-36
4.61938e-37
4.6194e-37
0
1.8717e-36
1.18263e-37
1.97652e-36
3.77275e-36
1.67678e-36
1.67678e-36
0
9.27051e-39
0
4.21301e-37
0
1.92831e-36
9.9938e-38
6.39603e-36
9.9938e-38
0
7.20508e-36
0
5.61545e-36
1.40386e-36
1.40394e-36
5.61545e-36
1.82403e-36
1.9739e-36
7.89562e-36
1.82403e-36
1.39653e-36
7.89562e-36
2.85005e-38
1.9739e-36
8.86665e-39
0
1.87812e-36
0
4.6953e-37
1.87185e-36
1.83938e-36
1.07746e-35
1.72394e-36
0
6.89576e-36
1.6999e-36
0
6.12053e-36
0
1.53013e-36
1.99593e-36
5.91347e-36
1.68205e-36
2.62821e-38
1.28782e-36
4.87201e-37
0
4.80921e-37
4.99473e-37
5.14946e-37
5.14946e-37
2.05978e-36
1.28737e-35
1.86787e-36
1.16742e-37
1.86787e-36
4.66967e-37
1.76178e-36
1.38799e-36
3.59082e-38
1.74877e-36
4.37191e-37
4.37191e-37
0
1.60371e-36
1.94283e-36
0
0
3.39316e-52
2.29169e-51
0
1.52576e-36
1.52805e-36
1.53015e-36
0
1.54867e-36
3.87168e-37
3.87168e-37
0
0
0
0
0
0
2.92334e-52
5.26593e-37
1.60759e-36
0
0
4.92938e-37
6.43034e-36
1.97175e-36
4.01897e-37
4.43644e-36
4.65763e-37
4.19187e-36
0
4.26591e-36
3.8279e-36
4.15354e-36
1.9206e-36
6.64567e-39
0
4.59849e-37
0
9.32099e-52
1.79235e-36
1.41862e-36
1.79235e-36
4.48088e-37
1.41862e-36
8.86637e-38
4.48088e-37
0
1.78077e-36
1.78077e-36
4.45193e-37
1.78077e-36
0
2.67276e-51
2.00457e-51
8.35239e-52
2.604e-36
0
1.62758e-37
0
0
7.64105e-36
5.23307e-37
1.66318e-39
1.7031e-36
0
1.70782e-36
0
0
9.39454e-36
2.54748e-51
4.44521e-36
1.97565e-36
1.97562e-36
4.93906e-37
0
0
1.59297e-36
6.68191e-52
0
1.64121e-36
0
1.64121e-36
4.64853e-37
1.99453e-36
1.17712e-37
1.91263e-36
0
5.19829e-40
1.64323e-36
4.66881e-37
0
4.20193e-36
1.86753e-36
4.47706e-37
4.47706e-37
4.47706e-37
4.47706e-37
0
0
2.00457e-51
1.33638e-51
0
0
0
3.34096e-52
0
6.68191e-52
7.64897e-36
1.33638e-51
1.91224e-36
0
1.91224e-36
1.96138e-36
7.64897e-36
4.00915e-51
5.13004e-37
4.80248e-37
6.9201e-36
2.67276e-51
7.13769e-36
5.72822e-36
8.95034e-38
5.72822e-36
8.0553e-37
5.99739e-36
1.1936e-37
1.1936e-37
1.07424e-36
1.07424e-36
1.27321e-37
1.27321e-37
0
1.98626e-36
6.23063e-36
2.02585e-36
2.43384e-36
4.55817e-36
5.06463e-37
6.23063e-36
0
0
4.0576e-36
0
0
1.08581e-51
0
3.97614e-36
1.76717e-36
0
2.0921e-36
0
2.0921e-36
0
2.34634e-36
1.8539e-36
5.01597e-37
0
1.8539e-36
0
0
0
2.14025e-36
1.63394e-51
8.56098e-36
2.14025e-36
1.9354e-36
0
1.9354e-36
1.9354e-36
8.37096e-37
1.8782e-36
1.33638e-51
1.8782e-36
7.51279e-36
4.33404e-37
0
4.20158e-36
4.21007e-36
0
2.97965e-38
2.22443e-36
1.71206e-36
5.01863e-36
1.02421e-37
3.68716e-36
6.55495e-36
0
0
7.06537e-36
7.06537e-36
1.21365e-37
1.21365e-37
4.85459e-37
1.21365e-37
1.33438e-36
0
0
1.33638e-51
0
0
1.25286e-52
4.25463e-37
0
5.23841e-37
0
1.87758e-36
1.87819e-36
2.1329e-36
0
4.25841e-51
5.17576e-37
0
0
2.1329e-36
5.17576e-37
1.92745e-36
1.42371e-37
7.97797e-38
2.26995e-36
0
2.6564e-36
1.49423e-36
0
0
5.8271e-52
0
0
0
1.93653e-36
1.93653e-36
4.84132e-37
0
1.33638e-51
0
0
3.34096e-51
0
2.67276e-51
2.00457e-51
0
6.80886e-36
3.02013e-36
1.08725e-36
4.10992e-37
6.57587e-36
5.62867e-37
2.25145e-36
2.16126e-36
0
4.67186e-37
3.34096e-52
0
1.83974e-36
1.83974e-36
1.83974e-36
1.83974e-36
2.67276e-51
1.64123e-36
1.64095e-36
1.64123e-36
1.0924e-37
1.74783e-36
8.84841e-36
1.74783e-36
4.43233e-37
1.77293e-36
3.9891e-36
1.77293e-36
1.77482e-36
1.77482e-36
1.754e-51
7.0993e-36
0
0
1.37824e-37
3.44559e-36
2.20518e-36
3.44559e-36
0
0
0
0
1.60242e-39
1.60242e-39
2.10157e-39
2.10157e-39
0
1.91967e-36
1.99267e-36
6.51715e-51
6.0047e-37
5.40423e-36
6.0047e-37
5.40423e-36
0
0
4.17619e-53
0
1.18996e-37
0
1.90394e-36
1.18996e-37
3.4667e-36
1.874e-36
3.60272e-36
1.44109e-35
0
1.60121e-36
1.24316e-37
0
1.24316e-37
4.97263e-37
2.2729e-36
9.09161e-36
2.2729e-36
9.09161e-36
2.45163e-36
0
3.70037e-36
1.93889e-35
0
1.27301e-37
6.23775e-36
8.14726e-36
8.14726e-36
1.33638e-51
1.33638e-51
1.48233e-37
3.70241e-36
1.3855e-36
6.1692e-37
0
4.36101e-37
6.97762e-36
3.92491e-36
0
6.70531e-36
2.74767e-36
0
0
2.1715e-36
0
0
2.1715e-36
0
0
8.75249e-39
1.19326e-36
4.01563e-37
6.425e-36
4.01563e-37
0
1.83916e-51
0
1.73005e-36
0
5.64393e-36
0
0
0
2.13393e-36
4.80135e-36
4.80135e-36
6.73297e-37
6.73297e-37
6.73297e-37
2.69319e-36
4.40854e-36
2.00146e-36
5.13518e-37
0
0
6.98059e-36
4.36287e-37
3.34096e-52
5.01143e-52
0
0
7.40948e-36
0
0
7.40948e-36
0
0
0
0
0
1.33638e-51
0
2.24218e-36
5.11425e-36
4.87672e-36
0
0
5.22613e-37
2.09045e-36
0
2.09045e-36
5.859e-37
0
6.22271e-37
0
0
7.86602e-36
7.86602e-36
4.42463e-36
0
2.21289e-36
2.21289e-36
5.53222e-37
0
0
7.76672e-36
3.8421e-51
1.32621e-37
5.30484e-37
1.19359e-36
2.12194e-36
0
0
1.99439e-36
1.99439e-36
0
1.79066e-36
1.79066e-36
0
0
1.25854e-37
6.21866e-36
9.418e-36
7.44139e-36
7.44139e-36
1.25286e-52
7.24393e-36
5.54613e-36
5.54613e-36
1.13186e-37
0
0
2.07249e-36
0
0
0
6.68191e-52
8.35239e-52
1.8214e-36
1.64706e-37
0
5.21617e-37
4.69456e-36
1.00229e-51
5.21617e-37
1.27991e-36
3.64806e-36
0
0
0
0
0
6.50042e-36
0
3.54977e-51
0
1.98426e-36
3.0039e-38
2.23711e-36
0
2.23711e-36
3.49548e-38
9.23381e-36
2.25256e-36
5.02893e-36
0
1.25887e-36
5.59562e-37
0
2.23811e-36
0
0
6.92204e-51
3.54151e-38
1.73534e-36
0
2.26656e-36
0
7.62278e-52
0
6.68191e-52
9.4196e-36
1.33638e-51
5.02492e-36
0
6.68191e-52
2.3549e-36
5.58324e-37
2.2333e-36
2.20704e-36
0
0
5.23384e-37
0
5.23384e-37
0
0
5.02735e-37
1.88543e-36
0
0
5.37118e-37
0
0
4.82128e-37
0
0
2.09623e-36
4.16609e-38
1.55492e-36
2.02922e-36
0
0
6.20479e-36
2.75715e-38
1.11458e-37
1.11481e-35
2.75866e-38
0
0
0
2.15867e-36
0
1.81131e-36
0
4.88633e-36
4.59626e-37
4.77226e-37
6.711e-36
0
2.6844e-37
2.15783e-36
0
0
0
0
2.75771e-36
1.66824e-36
8.71572e-36
2.17893e-36
0
0
4.88993e-37
4.88993e-37
0
1.10023e-36
5.6137e-37
0
5.07495e-37
2.02998e-36
5.07495e-37
4.77711e-37
0
5.40997e-37
4.95146e-36
0
2.76022e-36
5.44992e-37
0
5.39142e-37
4.61248e-36
1.97786e-36
4.86502e-37
4.72019e-43
4.86502e-37
4.37852e-36
1.97979e-36
0
4.86502e-37
8.32978e-36
1.27184e-35
8.79073e-36
1.40213e-35
8.26396e-36
9.18843e-36
4.77229e-37
0
1.21314e-37
0
0
4.95506e-37
0
3.66526e-51
2.28707e-36
9.14829e-36
2.21663e-36
2.28707e-36
2.21663e-36
0
0
5.23262e-37
5.23262e-37
0
1.49415e-36
1.53392e-35
5.79902e-36
6.65763e-39
1.18347e-37
1.70435e-36
1.18347e-37
1.70435e-36
1.18347e-37
2.098e-36
2.06583e-36
0
0
8.39201e-36
2.06583e-36
8.19532e-39
0
4.33449e-36
1.92644e-36
0
4.8161e-37
0
5.14216e-37
1.95548e-36
1.95548e-36
0
1.95548e-36
5.14216e-37
1.95548e-36
1.83006e-36
0
0
0
0
0
1.67604e-36
5.08953e-37
4.5191e-37
2.4793e-36
1.65302e-36
6.61206e-36
1.65302e-36
3.71929e-36
2.04634e-51
0
2.27228e-36
2.01281e-36
5.42942e-36
0
2.01281e-36
5.55973e-37
5.32498e-37
2.12999e-36
2.15063e-36
0
0
0
1.26314e-36
0
1.26314e-36
0
5.20907e-37
2.08363e-36
5.20907e-37
0
1.60784e-51
6.68191e-52
4.1134e-37
1.89981e-36
1.38167e-37
0
4.16692e-36
1.25286e-51
1.85196e-36
0
0
0
0
7.56034e-37
9.8396e-36
9.8396e-36
6.29735e-36
3.54226e-36
1.09966e-35
2.08129e-36
6.03141e-37
2.12042e-36
5.74853e-37
2.39378e-36
1.57621e-37
9.85133e-39
0
1.70714e-37
0
1.28289e-36
2.28069e-36
1.42543e-37
0
2.25977e-36
0
2.25977e-36
0
0
5.22194e-36
2.56443e-36
2.67276e-51
1.70957e-37
2.41219e-36
3.34096e-52
5.48334e-37
5.7652e-36
6.36045e-37
1.7223e-36
3.87518e-36
0
4.30576e-37
0
1.40947e-52
1.22154e-51
0
1.72046e-36
1.72046e-36
2.25515e-51
1.72046e-36
2.45564e-36
2.45564e-36
6.13909e-37
6.13909e-37
1.63282e-36
1.46978e-36
1.26992e-37
2.14599e-36
2.14599e-36
5.36496e-37
2.14599e-36
0
4.92127e-37
1.51861e-35
5.93207e-36
2.1495e-36
2.42658e-36
0
1.88921e-36
1.68735e-36
2.63648e-38
6.21011e-36
2.78165e-36
0
0
5.90182e-37
2.28122e-36
0
2.50572e-52
0
0
0
0
2.50572e-52
0
5.60706e-36
6.3879e-37
2.48169e-36
1.84089e-37
0
2.03249e-36
2.03249e-36
0
0
0
1.36659e-37
1.36659e-37
4.99936e-36
5.55485e-37
2.22194e-36
0
9.5007e-36
2.3723e-36
1.48269e-37
1.33442e-36
2.3723e-36
2.02651e-36
1.78111e-36
2.02651e-36
2.02651e-36
2.21254e-36
2.20951e-36
1.24886e-36
2.21018e-36
0
6.16551e-36
1.10688e-36
4.7191e-51
1.10688e-36
1.9678e-36
5.39378e-37
5.39378e-37
2.15751e-36
2.15751e-36
3.51988e-36
0
1.03655e-38
4.00915e-51
8.57276e-36
2.14319e-36
2.14319e-36
0
0
0
0
1.96531e-36
1.90205e-36
0
0
1.01277e-36
1.3629e-37
5.4516e-37
1.3629e-37
5.4516e-37
1.46727e-37
2.12896e-36
2.12896e-36
0
1.19754e-36
5.52689e-36
1.2062e-37
2.5069e-36
0
5.46839e-40
3.48187e-36
4.83594e-43
4.56673e-36
0
2.02834e-36
1.33638e-51
4.2806e-52
0
1.33638e-51
0
0
0
0
2.50739e-36
0
3.42895e-36
2.21693e-36
1.38558e-37
0
2.21693e-36
3.42895e-36
1.38558e-37
3.16756e-38
7.91889e-37
1.01528e-35
1.12814e-36
1.58851e-36
2.15648e-36
2.15648e-36
4.85208e-36
5.39119e-37
1.86532e-36
5.31603e-36
5.9067e-37
0
5.9067e-37
2.2578e-36
0
0
0
0
0
0
0
0
1.80263e-36
1.01398e-36
0
1.12664e-37
1.01396e-35
2.53489e-36
8.91173e-36
3.96077e-38
3.34103e-38
4.46184e-37
0
1.82839e-36
1.82111e-36
0
0
0
4.59612e-37
6.51822e-37
1.77635e-36
7.10541e-36
3.64812e-36
0
1.97031e-36
2.36755e-36
1.97031e-36
2.36755e-36
0
1.47968e-37
0
0
1.96599e-36
0
0
3.99811e-38
0
2.15615e-36
0
5.39038e-37
5.44132e-37
5.44131e-37
2.15574e-36
2.17446e-36
0
1.89188e-36
2.67276e-51
0
0
0
0
0
1.82073e-36
0
0
1.82073e-36
0
0
0
1.38853e-37
1.38853e-37
1.32619e-36
1.47354e-37
0
1.99598e-36
0
1.99598e-36
7.98394e-36
0
0
5.05539e-37
2.11811e-36
0
0
0
0
0
2.18747e-36
2.42512e-36
3.33598e-37
3.70665e-38
3.70665e-38
3.00239e-36
0
1.12559e-37
2.07496e-36
1.80094e-36
9.36973e-36
0
0
1.12559e-37
2.62612e-36
0
1.88313e-36
1.17696e-37
2.94239e-36
6.84168e-37
6.84168e-37
2.25956e-36
0
6.84168e-37
1.71042e-37
5.64891e-37
2.25956e-36
0
2.38428e-36
5.72871e-37
0
5.72871e-37
0
5.72871e-37
5.36463e-36
3.59513e-38
1.57231e-37
1.57231e-37
2.51569e-36
0
6.50076e-36
1.97229e-36
1.59837e-36
1.96915e-36
1.63221e-36
0
1.59936e-36
1.96962e-36
2.50537e-36
2.50537e-36
2.50537e-36
2.50537e-36
2.14436e-36
1.34928e-36
2.14436e-36
0
0
0
1.25815e-36
1.93617e-36
6.56747e-36
6.56747e-36
2.91888e-36
0
1.53147e-37
0
1.6934e-37
3.13949e-36
3.48832e-37
0
0
9.43952e-39
2.41652e-36
0
2.41652e-36
5.62926e-36
0
5.62968e-37
0
5.62968e-37
2.37295e-36
4.35349e-36
2.44486e-36
0
0
3.97456e-36
0
2.67449e-36
5.49282e-36
0
3.17159e-36
1.91861e-36
6.26486e-37
0
0
0
0
6.05913e-37
0
0
5.71039e-36
0
2.53795e-36
5.71039e-36
2.21987e-36
0
5.54968e-37
5.54968e-37
2.26287e-36
2.86395e-36
2.26287e-36
3.53574e-38
0
5.26183e-37
5.26183e-37
0
0
2.5095e-36
0
1.26771e-37
2.52386e-39
3.13215e-53
4.7623e-36
0
5.70005e-37
6.04582e-37
5.70005e-37
6.04582e-37
0
0
5.70005e-37
7.65174e-37
0
0
0
3.90598e-38
6.28995e-37
9.76726e-37
0
9.76841e-37
6.28263e-37
0
0
0
5.06144e-37
2.34428e-36
1.96715e-36
0
2.09012e-36
1.92104e-39
6.14641e-37
5.12879e-37
2.03608e-36
0
2.67276e-51
0
3.04724e-36
2.40778e-36
9.40885e-38
2.4078e-36
2.58852e-36
0
1.85343e-37
4.63357e-36
2.96548e-36
1.06453e-36
6.13136e-36
1.00264e-38
0
8.13441e-36
1.53863e-36
0
5.67548e-37
0
5.10793e-36
2.14226e-36
2.14226e-36
8.56904e-36
5.35565e-37
1.45782e-37
5.86653e-37
5.27988e-36
1.31203e-36
6.52531e-37
1.63133e-37
0
5.24814e-36
1.63133e-37
0
5.83127e-37
6.52531e-37
1.63133e-37
1.63133e-37
1.46663e-37
1.46663e-37
2.50898e-36
0
0
2.43179e-36
2.50651e-36
5.63964e-36
5.63964e-36
1.40991e-36
2.41082e-36
3.76691e-38
3.759e-38
3.76691e-38
3.10592e-36
1.22383e-37
1.83183e-37
0
2.13443e-36
5.14167e-37
1.62811e-36
0
0
2.50572e-52
1.78601e-36
2.15089e-36
2.00791e-36
8.4019e-39
2.00791e-36
2.15089e-36
1.96085e-39
8.4019e-39
1.96085e-39
0
6.9305e-37
2.6918e-36
6.73188e-37
0
7.39455e-37
0
6.70356e-36
6.03468e-52
0
0
0
0
0
2.26524e-37
0
7.13664e-37
1.78416e-37
0
2.87985e-36
2.61731e-36
2.7203e-37
6.39956e-37
1.00229e-51
4.90463e-36
6.66198e-37
2.17984e-36
0
6.63973e-37
2.64255e-36
0
3.15824e-36
1.98119e-37
0
1.98119e-37
0
1.57888e-37
3.91975e-36
0
2.10436e-37
2.58017e-36
1.30862e-37
1.60763e-36
0
8.19689e-36
5.90985e-37
4.94306e-36
1.67852e-37
2.63945e-36
3.27959e-36
0
7.05976e-37
1.67048e-52
7.87192e-37
1.23314e-36
6.7605e-36
1.11957e-36
0
1.92512e-37
0
1.92512e-37
3.71393e-36
6.10086e-36
6.34792e-37
1.82545e-37
5.20693e-36
1.85721e-37
1.75956e-37
0
0
0
8.23123e-37
)
;

boundaryField
{
    frontAndBack
    {
        type            zeroGradient;
    }
    bottom
    {
        type            zeroGradient;
    }
    right
    {
        type            zeroGradient;
    }
    top
    {
        type            zeroGradient;
    }
    left
    {
        type            zeroGradient;
    }
}


// ************************************************************************* //
