/*--------------------------------*- C++ -*----------------------------------*\
| =========                 |                                                 |
| \\      /  F ield         | OpenFOAM: The Open Source CFD Toolbox           |
|  \\    /   O peration     | Version:  2106                                  |
|   \\  /    A nd           | Website:  www.openfoam.com                      |
|    \\/     M anipulation  |                                                 |
\*---------------------------------------------------------------------------*/
FoamFile
{
    version     2.0;
    format      ascii;
    arch        "LSB;label=32;scalar=64";
    class       surfaceScalarField;
    location    "constant";
    object      face_nonOrthoAngle;
}
// * * * * * * * * * * * * * * * * * * * * * * * * * * * * * * * * * * * * * //

dimensions      [0 0 0 0 0 0 0];

internalField   nonuniform List<scalar> 
3923
(
2.63597
13.6538
10.7802
12.5025
16.8083
13.0832
15.4574
6.07487
13.0832
15.4574
6.07487
13.0832
15.4574
6.07487
13.0832
15.4574
6.07487
7.58311
0.794251
11.1521
7.58311
0.794251
11.1521
7.58311
0.794251
11.1521
7.58311
0.794251
11.1521
3.35728
2.46967
3.35728
2.46967
3.35728
2.46967
3.35728
2.46967
4.51202
11.807
12.1542
4.49358
9.43978
5.09022
4.49358
9.43978
5.09022
4.96803
9.15908
0.960818
5.11604
9.46065
1.89823
9.62569
13.7933
10.3228
9.62569
13.7933
10.3228
9.62569
13.7933
10.3228
9.62569
13.7933
10.3228
0.873638
2.95769
6.86358
4.13289
3.13118
10.1484
17.2924
9.32164
2.5382
8.82166
11.7153
1.92235
4.23427
1.79973
1.92235
4.23427
1.79973
1.92235
4.23427
1.79973
1.92235
4.23427
1.79973
0.185619
2.58331
1.97211
0.185619
2.58331
1.97211
0.185619
2.58331
1.47183
0.185619
2.58331
1.47183
5.3494
1.81497
0.302484
5.03975
8.08465
0.302484
5.03975
8.08465
0.302484
5.03975
8.08465
0.302484
5.03975
8.08465
1.43607
1.28532
1.43607
1.28532
1.43607
1.28532
1.43607
1.28532
4.97088
10.5026
2.80036
11.7491
5.58041
8.02054
13.9582
10.1794
2.4802
12.869
10.1794
2.4802
12.869
10.1794
2.4802
12.869
10.1794
2.4802
12.869
1.07109
11.7055
1.07109
12.0842
1.07109
11.9793
1.07109
11.9314
4.49458
1.60451
7.65221
4.49458
1.60451
7.65221
4.49458
1.60451
7.65221
4.49458
1.60451
7.65221
5.46994
10.1485
8.24712
5.46994
10.1485
8.24712
5.46994
10.1485
8.24712
5.46994
10.1485
8.24712
6.43722
9.04317
9.5813
6.43722
9.04317
9.5813
6.43722
9.04317
9.5813
6.43722
9.04317
9.5813
21.6067
10.4032
21.6067
10.4032
21.6067
10.4032
21.6067
10.4032
3.85657
6.65914
4.43168
2.39105
3.85657
6.65914
3.85657
6.65914
4.43168
2.39105
4.43168
2.39105
3.85657
6.65914
4.43168
2.39105
7.35468
5.51353
2.42631
7.00469
6.13158
5.26574
7.00469
6.13158
5.26574
7.00469
6.13158
5.26574
7.00469
6.13158
5.26574
7.50778
8.75648
7.50778
8.75648
7.50778
8.75648
7.50778
8.75648
2.3043
2.61934
8.65945
2.3043
2.61934
8.66131
2.86092
3.00771
7.26915
3.518
3.21062
9.3044
3.69548
5.97737
1.66818
5.48995
10.2434
3.69548
5.97737
1.66818
5.48995
10.2434
3.69548
5.97737
1.66818
5.48995
10.2434
3.69548
5.97737
1.66818
5.48995
10.2434
3.32131
14.7084
9.35707
15.6872
2.21432
7.70109
10.5476
2.13783
3.26641
0.319086
0.707696
3.26641
0.319086
0.707696
3.26641
0.319086
0.707696
3.26641
0.319086
0.707696
0.165336
11.2188
7.89707
0.165336
11.2188
7.89707
0.165336
11.2196
7.89707
0.165336
11.2196
7.89707
5.4833
12.037
4.70912
7.78646
4.12556
5.36972
2.11195
2.63141
4.09778
2.77786
1.75148
0.804356
1.84269
7.78646
4.12556
5.45612
3.42361
1.84742
3.68563
2.09436
2.63141
0.320117
3.28702
5.04527
0.101842
6.12797
2.77765
0.597826
14.4975
13.1993
5.99367
13.9553
9.78966
4.52236
0.575718
4.83853
0.575718
4.83853
0.575718
4.83853
0.575718
4.83853
17.8579
8.37961
5.59323
17.8579
8.37961
5.59323
17.8579
8.37961
5.59323
17.8579
8.37961
5.59323
3.83293
2.00452
11.6891
3.83293
2.00452
11.6891
3.83135
2.00452
11.6891
3.83135
2.00452
11.6891
5.78669
8.63312
3.46952
5.78669
8.63312
3.46952
5.78669
8.63312
3.46952
5.78669
8.63312
3.46952
2.5044
10.4418
1.72617
12.2145
11.551
1.72617
12.2145
11.551
1.72617
12.2145
11.551
1.72617
12.2145
11.551
7.8928
2.32361
7.8928
2.32361
7.8928
2.32361
7.8928
2.32361
3.45561
9.38671
3.45561
9.38671
3.45561
9.38671
3.45561
9.38671
13.7866
14.9308
0.145178
13.9713
11.1744
3.18465
3.18465
3.18465
3.18465
18.6025
17.1607
18.6025
17.1607
18.5952
17.1638
18.5741
17.1638
4.58572
13.1093
3.41069
7.93451
7.2818
11.452
9.40411
3.68724
7.67379
0.0977148
0.724485
2.61162
3.63385
6.88622
5.88581
7.04786
5.45797
6.61236
4.73889
4.50131
2.1171
1.61305
8.12201
0.863851
6.45458
0.794222
16.0186
20.0449
16.0186
20.0449
16.0186
20.0449
16.0186
20.0449
4.09031
7.839
7.09351
4.09031
7.839
7.09351
4.40944
12.7266
4.40944
12.7266
4.09031
7.839
7.09351
4.09031
7.839
7.09351
4.40944
12.7266
4.40944
12.7266
2.22687
1.04111
21.8481
18.0431
20.6714
4.22446
5.82992
3.51121
9.21385
1.78878
9.21385
1.78878
9.26839
1.81549
9.27175
1.81549
18.3116
1.07315
8.06612
15.2782
0.990841
7.46717
6.91216
6.93626
0.750993
1.93267
1.03435
0.750993
1.93267
1.03435
0.750885
1.8958
1.03863
0.750993
1.93267
1.03435
1.71438
5.17552
1.14161
1.71438
5.17552
1.14161
1.71438
5.17552
1.14161
1.71438
5.17552
1.14161
7.50587
3.90546
5.30101
8.20521
4.73898
7.92141
8.20521
4.73898
7.92141
8.20521
4.73898
7.92141
8.20521
4.73898
7.92141
8.55007
4.24838
8.55007
4.24838
8.55007
4.24838
8.55007
4.24838
0.434213
9.30096
7.94564
0.434213
9.30096
7.94564
0.434213
9.30096
7.94564
0.434213
9.30096
7.94564
11.2488
12.3208
4.30066
7.82745
5.73463
4.09521
7.52839
5.47915
4.79431
3.91204
3.75183
7.82745
7.30787
5.81496
4.90102
5.6353
1.26603
4.19908
4.66302
7.05552
7.05552
7.05552
7.05552
6.52044
3.69362
6.52044
3.69362
6.52044
3.69362
6.52044
3.69362
15.1602
10.6835
7.76238
5.71974
0.154961
6.03224
5.71974
0.154961
6.03224
5.71974
0.154961
6.03224
5.71974
0.154961
6.03224
3.40452
18.1056
3.40452
18.1056
3.40452
18.1056
3.40452
18.1056
5.13674
11.5631
11.594
8.12458
14.8384
3.92144
13.1533
6.15048
7.80097
6.15048
7.80097
6.15048
7.80097
6.15048
7.80097
0.402423
8.75805
10.2566
6.31148
4.65418
12.5692
2.4352
12.5692
2.4352
12.5692
2.43954
12.5692
2.4352
1.17639
14.499
7.79625
3.03579
3.75222
3.58929
3.03579
3.75222
3.58929
3.03579
3.75222
3.58929
3.03579
3.75222
3.58929
12.6131
12.6131
12.6131
12.6131
1.01487
6.36645
1.01487
6.36645
1.01487
6.36645
1.01487
6.36645
1.71366
4.49813
1.71366
4.49813
1.71366
4.49813
1.71366
4.49813
8.421
11.6345
4.75183
0.747738
4.75183
0.747738
4.75183
0.747738
4.75183
0.747738
3.92127
1.78503
3.92127
1.78503
3.92127
1.78503
3.92127
1.78503
3.73715
9.03519
9.69367
7.90437
9.69367
7.90437
9.69367
7.90437
9.69367
7.90437
2.40709
6.15977
3.66015
6.26712
9.22353
18.2611
6.80571
17.0617
2.26052
8.16449
5.48743
1.38029
8.05271
5.59565
1.30592
5.0214
5.0214
5.0214
5.0214
14.4625
2.7907
14.4141
3.63481
1.65974
4.44555
1.65974
4.44555
1.77107
4.35669
2.76167
3.85569
0.651238
4.23682
0.651238
4.23682
0.651238
3.3876
0.651238
3.3876
1.8184
5.95633
1.8184
5.95633
1.8184
5.95633
1.8184
5.95633
5.76286
3.12912
3.11889
3.11889
3.11889
3.11889
5.86529
5.86529
5.86529
5.86529
9.98681
18.1726
7.2049
7.14811
7.2049
7.14811
7.2049
7.14811
7.2049
7.14811
5.99488
9.08035
5.99488
9.08035
5.99488
9.08035
5.99488
9.08035
23.1178
15.4368
23.1178
15.4368
23.1178
15.4368
23.1178
15.4368
1.62067
12.5767
2.5755
22.4662
2.5755
22.4662
2.5755
22.4662
2.5755
22.4662
2.7074
1.24064
7.83303
2.7074
1.24064
7.83303
2.7074
1.24064
7.83303
2.7074
1.24064
7.83303
10.5863
2.6732
5.26547
6.72359
5.98506
1.57726
7.50567
0.737981
0.969785
5.39881
3.3045
9.93958
1.84499
9.93958
1.84499
9.93958
1.84499
9.93958
1.84499
6.42028
2.30307
1.40548
4.60523
1.40548
4.60523
1.40548
4.60523
1.40548
4.60523
1.91814
6.28534
8.61067
1.91814
6.28534
8.61067
1.91814
6.28534
8.61067
1.91814
6.28534
8.61067
4.49169
4.96328
5.24722
4.49169
4.96328
5.24722
4.48039
4.97335
5.21813
4.49169
4.96328
5.24722
0.617162
2.07327
4.46697
0.617162
2.07327
4.46697
0.617162
2.07327
4.46697
0.617162
2.07327
4.46697
20.3992
11.3596
3.5247
10.0456
8.77795
3.5247
10.0456
8.77795
3.5247
10.0456
8.77795
3.5247
10.0456
8.77795
6.22741
5.68542
6.45519
5.16254
21.3131
13.7976
5.16254
21.3131
13.7976
5.16254
21.3131
13.7976
5.16254
21.3131
13.7976
6.17835
10.556
6.17835
10.556
6.17835
10.556
6.17835
10.556
3.00738
9.74351
5.49235
5.40358
8.21267
3.00738
9.74351
5.49235
5.40358
8.21267
3.00738
9.74351
5.49235
5.40358
8.21267
3.00738
9.74351
5.49235
5.40358
8.21267
4.26513
14.8228
4.26513
14.8228
4.26513
14.8228
4.26513
14.8228
0.189352
4.51917
0.189352
4.51917
0.189352
4.51917
0.189352
4.51917
5.87694
0.683587
5.68218
5.87694
0.683587
5.68218
5.87694
0.683587
5.68218
5.87694
0.683587
5.68218
8.51994
0.283371
9.76413
8.51994
0.283371
9.76413
8.51994
0.283371
9.76413
8.51994
0.283371
9.76413
0.652685
4.5393
7.06097
0.652685
4.91386
4.5393
0.652685
7.06097
4.5393
0.652685
5.8597
4.5393
1.19116
1.19116
1.19116
1.19116
1.91067
1.91067
1.91067
1.91067
8.79071
6.59956
8.79071
6.59956
8.79071
6.59956
8.79071
6.59956
19.6545
11.5969
7.83037
10.2818
12.8191
2.37901
0.891407
2.37901
0.891407
2.14831
2.14831
2.37901
0.891407
2.14831
2.37901
0.891407
2.14831
0.736589
4.16752
0.727828
8.4887
8.4887
8.4887
8.4887
8.39977
3.88479
9.54722
1.10327
9.54722
1.10327
9.54722
1.10327
9.54722
1.10327
17.2814
12.3995
17.2814
12.3995
17.2814
12.3995
17.2814
12.3995
6.71245
6.71245
6.71245
6.71245
3.86368
7.66843
4.08117
3.86368
7.66843
4.08117
3.86368
7.66843
4.08117
3.86368
7.66843
4.08117
2.03734
2.03734
2.55287
2.55287
0.241759
3.23817
0.206643
1.94652
0.241759
3.23817
0.206643
1.94652
0.241759
3.23817
0.206643
1.94652
0.241759
3.23817
0.206643
1.94652
5.95661
0.9268
10.1952
8.11735
0.0504144
0.380012
10.2875
1.65491
7.72005
4.26301
11.0187
4.26301
11.0187
4.26301
11.0187
4.26301
11.0187
7.59482
2.30596
7.39911
2.31533
7.47477
2.30642
7.1989
2.38321
3.46539
4.27612
3.46539
4.27612
3.46539
4.27612
3.46539
4.27612
4.21783
2.2364
4.21783
2.2364
4.19133
2.19308
4.21783
2.2364
0.380398
16.0957
8.90065
9.00568
0.678719
4.38956
0.678719
4.38956
0.678719
4.38956
0.678719
4.38956
1.31793
1.66643
12.984
1.31793
1.66643
12.984
1.31793
1.66643
12.984
1.31793
1.66643
12.984
9.89402
6.72539
0.918589
9.62769
13.5228
9.7835
10.5031
9.7835
10.5031
9.7835
10.5031
9.7835
10.5031
2.74127
15.2984
12.839
2.74127
15.2984
12.839
1.28427
15.2984
12.837
2.5234
15.2984
12.8284
9.49972
10.3798
9.49972
10.3798
9.49972
9.49972
10.3798
10.3798
5.63324
12.1077
5.72514
5.63324
12.1077
5.72514
5.63324
12.1077
5.72514
5.63324
12.1077
5.72514
9.37014
7.50498
9.59015
9.37014
7.50498
9.59015
9.37014
7.50498
9.59015
9.37014
7.50498
9.59015
0.771879
5.45201
9.99128
9.99128
9.99128
9.99128
5.88647
6.8083
0.185379
0.430435
0.430435
0.430435
0.430435
0.603691
14.1879
2.5395
4.43079
0.156291
17.8713
16.9627
4.05598
8.29578
16.9621
8.29578
16.9621
8.29578
16.9621
8.29578
16.9621
11.3181
3.89989
13.0858
11.3181
3.89989
13.0858
11.3181
3.89989
13.0858
11.3181
3.89989
13.0858
6.86378
8.32898
3.78843
9.83594
10.7816
6.36106
3.42263
6.36106
3.42263
6.36106
3.42263
6.36106
3.42263
5.0914
3.2516
1.06101
8.6076
1.38012
8.91139
1.38012
8.91139
1.38012
8.91139
1.38012
8.91139
0.694329
2.6621
1.86644
12.7889
1.86644
12.7889
1.86644
12.7744
1.86644
12.7815
7.57933
4.26707
7.32565
3.8961
7.61953
4.39111
7.28921
3.85156
10.7419
1.9454
6.34997
0.818518
2.45641
0.913994
6.34611
0.875126
4.48125
0.906426
1.07911
18.3474
12.0271
15.8686
12.0271
15.8686
12.0271
15.8686
12.0271
15.8686
2.38142
14.7785
2.38142
14.7785
2.38142
14.7785
2.38142
14.7785
8.54742
9.66193
0.968408
5.65268
10.3216
5.55863
1.51684
0.597643
5.55863
1.51684
0.597643
5.55863
5.55863
1.51684
0.597643
1.51684
0.597643
4.70568
4.4053
8.36924
7.79877
7.79877
7.79877
7.79877
3.01995
8.75809
3.31207
8.75809
3.31207
8.75809
3.31207
8.75809
3.31207
7.82496
3.92778
1.82449
5.68875
5.24461
0.266358
7.82496
3.92782
1.82449
4.57224
4.49399
2.95075
8.26212
7.80174
3.62607
8.26225
7.80203
3.62283
8.26973
7.95256
4.71227
7.85764
7.47439
4.25759
8.9209
6.77893
3.24732
4.98365
10.3759
3.24732
4.98365
10.3759
3.24732
4.98365
10.3759
3.24732
4.98365
10.3759
8.44684
0.485203
8.44684
0.485203
7.24404
0.312394
7.19381
0.177314
1.22314
5.33242
4.07367
1.22314
5.33242
4.07367
10.8194
7.42982
1.22314
5.33242
4.07367
10.8194
7.42982
1.22314
5.33242
4.07367
10.8194
7.42982
10.8194
7.42982
6.14884
3.37424
2.96741
7.86666
1.70782
6.14884
3.37424
2.96741
6.14884
3.37424
2.96741
7.86666
1.70782
7.86666
1.70782
6.14884
3.37424
2.96741
7.86666
1.70782
3.09312
2.59235
0.985309
3.09312
2.59235
0.985309
3.09312
2.59235
0.985309
3.09312
2.59235
0.985309
3.88922
7.35448
10.0397
7.35462
10.0397
11.5748
10.2955
8.3424
10.2959
9.58772
4.14955
4.8086
9.51958
9.51958
9.51958
9.51958
0.804109
0.980983
7.00972
3.15972
5.08508
5.08508
5.12442
5.13846
5.15871
8.38234
10.7663
5.15871
8.38234
10.7663
5.39071
10.2267
11.4187
5.15871
8.38234
10.7663
4.58848
4.58848
4.58848
4.58848
9.30873
9.30873
9.30873
9.30873
7.22909
6.29488
3.12366
7.22909
6.29488
3.12366
7.70728
6.49201
3.18113
7.70728
6.49201
3.18113
5.48693
1.69505
5.48693
1.69505
5.48693
1.69505
5.48693
1.69505
3.20379
5.51372
1.91735
4.85872
2.88763
1.91735
4.85872
2.88763
1.91735
4.85872
2.88763
1.91735
4.85872
2.88763
0.956103
2.36713
1.75727
1.65912
0.357691
6.59147
6.59147
6.59147
6.59147
28.3164
15.0216
3.96012
9.61758
3.7157
5.68191
1.17578
3.64103
5.68751
1.18523
3.67992
3.66758
7.4907
3.50558
0.424804
7.00349
7.67007
7.67007
7.67007
7.67007
7.73813
6.93777
13.2444
6.93777
13.2444
6.93777
13.2444
6.93777
13.2444
19.7149
19.7149
19.7149
19.7149
7.98245
11.9201
7.98245
11.9201
7.52473
11.955
8.59165
14.9745
4.48717
5.35318
5.76511
4.48717
5.35318
5.76511
4.48717
5.35318
5.76511
4.48717
5.35318
5.76511
4.35615
7.40248
2.40747
4.35615
7.40248
2.40747
4.35615
7.40248
2.40747
4.35615
7.40248
2.40747
3.24955
4.97781
3.24955
4.97781
3.24955
4.97781
3.24955
4.97781
0.153758
0.519748
0.153758
0.519748
0.153758
0.519748
0.153758
0.519748
1.69089
0.388503
1.94304
2.2658
4.44038
1.69089
0.388503
1.94304
2.2658
4.44038
1.69089
0.388503
1.94304
2.2658
4.44038
1.69089
0.388503
1.94304
2.2658
4.44038
3.87914
5.94985
3.87914
5.94985
3.87914
5.94985
3.87914
5.94985
0.662976
0.662976
0.662976
0.662976
0.0269676
4.7071
5.15813
4.3117
2.41561
2.41561
2.41561
2.41561
6.0903
1.84443
6.0903
1.84443
6.0903
1.84443
6.0903
1.84443
0.552104
1.05416
10.0195
13.5512
0.552104
1.05416
10.0195
13.5512
0.552104
1.05416
10.0195
13.5512
0.552104
1.05416
10.0195
13.5512
5.80463
3.38061
8.38195
8.94416
7.27697
0.885327
1.68673
0.885326
1.68673
0.885327
1.68673
0.885326
1.68673
0.957389
4.39298
8.30844
2.63172
0.957389
4.39298
8.30844
2.63172
0.957389
4.39298
8.30844
2.63172
0.957389
4.39298
8.30844
2.63172
7.52475
5.32169
1.38973
7.54125
5.36435
1.05688
2.82047
7.9388
2.82047
7.9388
2.82047
7.9388
2.82047
7.9388
3.00663
15.2027
14.5532
1.28808
4.1167
1.28808
4.1167
1.28808
4.1167
1.28808
4.1167
6.97334
18.1743
15.9791
6.97085
18.1743
15.982
6.04766
17.5601
16.1188
5.97195
17.3678
15.9819
9.73333
9.73333
10.8538
10.8538
2.67802
5.8059
6.90769
2.67802
5.8059
6.90769
2.67802
5.8059
6.90769
2.67802
5.8059
6.90769
1.61233
2.50893
1.59058
2.87336
0.226503
14.3186
2.91951
0.226503
14.3186
2.91951
0.226503
14.3186
2.91951
0.226503
14.3186
2.91951
9.80534
1.97364
9.80534
1.97364
9.80534
1.97364
9.80534
1.97364
0.997746
1.52556
0.958303
0.0058011
5.02361
7.86257
1.70208
5.69442
2.7743
3.65594
1.42073
3.14254
5.02361
7.45031
1.08111
5.69442
2.70645
2.31611
2.70645
2.31611
2.70645
2.31611
2.70645
2.31611
2.82456
0.101539
2.82456
0.101539
2.75686
0.122147
2.82456
0.101539
1.13
0.0363378
1.13
0.0363377
1.13
0.0363378
1.13
0.0363377
2.38729
11.927
2.38729
11.9279
2.99156
14.4589
2.38729
11.9282
6.22563
11.972
14.922
6.36686
10.5799
13.3146
3.49773
3.49773
3.50363
3.49773
6.23985
1.16148
0.73978
11.1168
12.5393
17.5045
0.610479
12.3298
1.63712
0.832347
6.88259
0.610479
12.3298
1.64087
0.826676
6.88259
0.882858
5.70808
7.12198
1.77479
7.30327
1.09834
5.34781
7.30664
1.85603
7.26466
8.09228
8.09228
8.09228
8.09228
4.08221
1.56158
4.08221
1.56158
4.08221
1.56158
4.08221
1.56158
0.0246008
7.92395
2.42133
12.9582
11.3791
5.32749
1.75189
5.32749
1.75189
0.572548
3.6895
2.95455
0.394373
8.33328
1.33946
10.7394
11.038
6.17806
16.2003
13.0248
6.96215
7.64568
13.0248
6.96215
7.64568
13.0248
6.96215
7.64568
13.0248
6.96215
7.64568
2.46986
1.90453
1.07802
1.45043
6.51885
15.3081
6.71073
7.7347
11.2484
9.7646
9.7646
9.7646
9.7646
1.43414
5.44096
0.751884
3.72869
6.09195
0.203679
2.14612
2.12747
6.57537
2.62992
2.87373
0.479165
3.01717
2.22847
8.00063
0.479165
3.01717
2.22847
8.00063
0.479165
3.01717
2.22847
8.00063
0.479165
3.01717
2.22847
8.00063
6.30776
6.30776
6.30776
6.30776
2.79691
1.35632
5.98487
7.6098
8.6071
7.6557
8.02785
14.5485
8.64891
14.5485
8.64891
14.5485
8.64891
14.5485
8.64891
10.1138
0.792364
11.0507
6.7695
16.5545
1.7982
6.56347
11.2208
11.4647
11.2208
11.4647
11.2208
11.4647
11.2208
11.4647
5.64707
10.5365
14.5313
17.098
1.81592
1.81592
1.81592
1.81592
0.4532
0.314201
7.88855
4.69385
9.91077
6.21474
2.10392
5.91485
2.10392
5.91485
2.10392
5.91485
2.10392
5.91485
9.77855
5.07864
8.34883
4.31767
8.85598
0.732777
1.72508
0.732777
1.72508
0.732777
1.72508
0.732777
1.72508
2.19124
15.2598
2.19124
15.2598
2.19124
15.2598
2.19124
15.2598
3.36312
3.86649
2.14574
8.02962
3.9539
4.74711
3.9539
4.74711
3.9539
4.74711
3.9539
4.74711
5.10595
7.67995
5.10595
7.67995
5.10595
7.67995
5.10595
7.67995
5.59768
4.72461
23.6056
14.9962
23.5336
14.9871
21.9566
16.2528
21.9583
16.052
4.54139
1.38248
6.47844
1.38248
6.47844
1.38248
6.47844
1.38248
6.47844
6.46687
6.46687
6.46687
6.46687
1.48189
5.76606
5.76606
5.76606
5.76606
0.503291
0.529325
1.65798
3.04169
0.503384
0.526644
1.08167
2.5904
5.21381
0.296387
13.6779
11.654
13.6779
11.654
13.6779
11.654
13.6779
11.654
2.24265
5.89128
9.31477
16.0553
9.31477
16.0553
9.31477
16.0553
9.31477
16.0553
17.4267
0.474309
0.0942813
0.375877
10.4024
9.78308
10.3294
13.6866
0.375877
10.3932
9.58263
10.3294
13.6866
3.4065
4.2293
3.72699
5.34723
8.92248
5.05529
0.170082
10.3376
9.85358
13.061
8.03402
10.1454
3.27605
8.03402
10.1454
3.27605
8.03402
10.1454
3.27605
8.03402
10.1454
3.27605
10.5142
9.47729
2.35747
1.28813
2.35747
1.28813
5.87487
3.01022
5.87487
3.01022
2.35747
1.28813
5.87487
3.01022
2.35747
1.28813
5.87487
3.01022
1.18789
10.5886
1.18789
10.5886
1.18789
10.5886
1.18789
10.5886
1.86022
5.39045
13.2421
23.0901
25.0194
10.353
1.3365
2.39238
7.38034
1.3365
2.39238
7.38034
1.3365
2.39238
7.38034
1.3365
2.39238
7.38034
12.6023
12.6023
12.6023
12.6023
14.05
1.25843
3.25976
1.25843
3.25976
1.25843
3.25976
1.25843
3.25976
9.48059
1.622
9.48059
1.622
9.48059
1.622
9.48059
1.622
3.8014
8.15896
3.8014
8.15896
3.8014
8.15896
3.8014
8.15896
1.20173
1.53556
1.20173
1.46159
0.966517
1.56327
1.20173
1.45411
10.1991
8.74014
7.61028
7.61028
7.61028
7.61028
3.80578
3.40875
3.03887
2.19844
3.03887
2.19844
3.03887
2.19844
3.03887
2.19844
1.80904
1.10767
3.46137
1.80904
1.10767
3.46137
7.33555
1.80904
1.10767
3.46137
7.33555
7.33555
1.80904
1.10767
3.46137
7.33555
0.739706
5.06621
0.739706
5.06621
0.739706
5.06621
0.739706
5.06621
15.1234
11.7861
4.99573
4.09707
6.01407
4.99573
4.09707
6.01407
4.99573
4.09707
6.01407
4.99573
4.09707
6.01407
11.2143
11.3094
10.1469
9.46687
10.1469
9.46687
10.1469
9.46687
10.1469
9.46687
12.3187
12.3187
12.3187
12.3187
1.75924
2.10869
1.75924
2.10869
1.75924
2.10869
1.75924
2.10869
5.99227
3.7203
2.36507
4.74813
4.74813
4.74813
4.74813
5.51115
7.99352
4.65256
4.69917
12.2275
9.53885
3.64552
12.2275
9.53885
3.64552
12.2275
9.53885
3.64552
12.2275
9.53885
3.64552
7.32923
7.32923
7.32923
7.32923
5.19701
8.16532
5.19701
8.16532
4.8753
4.18756
5.02206
4.08932
2.06819
6.09239
2.06819
6.09239
0.992609
6.09239
2.06819
6.09239
7.14201
2.76781
7.14201
2.76781
7.14328
2.76803
7.14328
2.76803
0.735214
0.735214
0.735214
0.735214
1.06948
2.24512
0.0354774
0.0354774
0.0354774
0.0354774
6.60111
2.47072
6.60111
2.47072
6.60111
2.47072
6.60111
2.47072
2.33921
10.5425
0.773879
10.5425
0.773879
10.5425
0.773879
10.5425
0.773879
8.51866
6.51625
2.82597
2.49705
2.82597
2.49705
2.82597
2.49705
2.82597
2.49705
3.41643
4.5477
4.97587
4.97587
4.97587
4.97587
6.33266
1.86454
6.33266
1.86454
6.33266
1.86454
6.33266
1.86454
2.50801
2.50801
2.50801
2.50801
5.08008
10.6962
5.08008
10.6962
5.08008
10.6962
5.08008
10.6962
5.91848
2.57831
3.15788
4.94674
2.88211
5.58068
3.15788
5.81952
0.00247242
5.16804
11.3604
11.3604
11.3604
11.3604
5.60387
4.8632
5.60387
4.8632
5.60387
4.8632
5.60387
4.8632
2.25628
2.26785
3.33208
2.25628
2.26785
3.33208
2.25628
2.26785
3.33208
2.25628
2.26785
3.33208
5.1689
3.47329
5.1689
3.47027
4.26992
2.66611
5.1689
3.47041
12.0709
12.0709
12.0709
12.0709
8.50762
8.50762
8.50762
8.50762
6.29814
9.99031
5.22389
5.22389
5.22389
5.22389
12.4603
12.4603
12.4603
12.4603
5.35484
0.244018
5.73647
8.7856
5.56405
10.3808
8.08796
9.36912
5.76389
6.26613
5.76389
6.26613
5.76389
6.26613
5.76389
6.26613
5.83394
6.64051
8.33731
5.83394
6.64051
8.33731
5.83394
6.64051
8.33731
5.83394
6.64051
8.33731
6.91224
3.71738
6.50177
7.15966
3.84235
3.84235
3.84235
3.84235
10.5741
10.5741
10.5741
10.5741
3.84091
1.21051
4.19078
1.8726
5.18678
20.936
20.936
20.936
20.936
0.94585
3.08928
5.23496
2.60229
0.94585
3.08928
0.94585
3.08928
5.23496
2.60229
5.23496
2.60229
0.94585
3.08928
5.23496
2.60229
4.94208
12.5033
4.94208
12.5033
4.6007
6.17077
7.28
11.756
11.1729
4.64648
19.2475
4.64648
19.2475
4.64648
19.2475
4.64648
19.2475
4.97418
9.46552
4.97418
9.46552
4.97418
9.46552
4.97418
9.46552
1.81731
2.64523
1.81731
2.64523
1.81731
2.64523
1.81731
2.64523
4.59524
8.78927
3.77418
6.90276
9.35155
1.7698
9.35155
1.7698
9.35155
1.7698
9.35155
1.7698
5.75471
10.4293
4.34013
4.90385
4.90385
4.90385
4.90385
0.864319
13.4086
13.9111
9.5675
7.97181
9.7284
7.22666
11.3744
7.22666
11.3744
7.60835
10.8064
7.64096
10.8192
0.808843
10.4846
0.808843
10.4846
0.808843
10.4846
0.808843
10.4846
7.91898
9.44944
7.69375
8.20204
6.90742
1.09788
5.24848
0.425466
5.24848
0.425466
5.24848
0.425466
5.24848
0.425466
2.51419
2.51419
2.51419
2.51419
2.18583
2.0193
7.84363
8.27289
7.06676
2.88425
7.06634
2.88404
4.51952
2.7343
6.51589
2.91366
3.11967
2.95331
2.38981
9.16651
9.16651
9.16651
9.16651
3.70986
2.09509
8.96066
10.1849
10.167
11.785
11.9966
9.35378
9.4078
3.95839
0.772051
3.95839
0.772051
3.95839
0.772051
3.95839
0.772051
2.38617
11.3098
5.53336
5.53336
5.54363
5.53336
2.29085
3.33144
7.49758
2.29085
7.49758
3.33144
2.29085
3.33144
7.49758
2.29085
3.33144
7.49758
4.42685
2.08778
8.56123
8.56123
8.41554
8.56123
14.7968
15.2077
9.03292
3.26559
9.03292
3.26559
9.03292
3.26559
9.03292
3.26559
4.89924
15.0853
7.72445
1.69859
3.33808
12.7573
3.33808
12.7573
4.07097
10.4645
3.65334
9.04081
3.39398
3.39398
3.39398
3.39398
6.29216
10.6889
6.29216
10.6889
6.29216
10.6889
6.29216
10.6889
3.1312
9.82709
2.70755
0.310152
0.310152
0.310152
0.310152
4.44505
0.432112
3.08745
0.901137
0.194861
5.71935
1.8583
3.19626
5.71935
1.8583
3.19626
5.71935
1.8583
3.19626
5.71935
1.8583
3.19626
3.45237
14.7653
3.39522
14.6654
3.14807
14.9786
3.31915
15.0695
7.03305
7.03305
7.03305
7.03305
3.34568
0.112707
3.34568
0.112707
3.34568
0.112707
3.34568
0.112707
2.16433
6.85299
14.2214
8.6213
9.54158
5.25145
8.37053
8.63093
5.25145
8.37053
8.63093
5.25145
8.37053
8.63093
5.25145
8.37053
8.63093
7.33389
7.33389
6.47634
6.56588
9.80411
9.80411
9.80411
9.80411
1.85033
1.85033
1.85033
1.85033
6.70491
1.18919
0.0932309
6.70491
1.01853
6.70491
0.536873
0.0932309
0.0932309
6.70491
1.01853
0.0932309
0.363913
9.00687
0.363913
9.00687
0.363913
9.00687
0.363913
9.00687
4.12919
8.29985
4.12919
8.29985
4.15839
8.30119
4.17423
8.30119
5.54576
11.0799
2.07077
2.27779
12.9377
4.84618
4.84618
2.75084
0.919379
3.69421
3.69421
3.69421
3.69421
3.21226
3.7638
3.21226
3.76381
3.2118
3.76943
3.2118
3.7576
3.02403
4.25135
3.02403
4.25135
3.02403
4.25135
3.02403
4.25135
1.77424
1.77424
1.77424
1.77424
3.13082
7.09296
7.72965
5.10607
4.97615
9.26082
8.32082
11.1368
10.0717
5.49203
0.0483415
4.9083
4.9083
4.9083
4.9083
6.28618
14.6523
1.33977
3.70286
1.33977
3.70286
1.33977
3.70286
1.33977
3.70286
3.75331
10.7983
3.75331
10.7983
3.75331
10.7983
3.75331
10.7983
2.03774
2.7245
7.23862
2.03774
2.7245
7.23862
2.03774
2.7245
7.23862
2.03774
2.7245
7.23862
3.98724
4.51108
3.60427
3.46903
2.85655
3.49281
3.49281
3.49281
3.49281
0.329585
1.61747
0.329585
1.61747
0.329585
1.61747
0.329585
1.61747
5.49944
6.97355
5.12192
5.49944
6.97355
5.12192
7.65137
1.21152
10.7818
6.98194
0.555314
9.04037
0.551538
0.551538
0.551538
0.551538
3.50275
15.9878
2.65022
2.69277
0.288182
4.94371
6.65043
4.94371
6.65043
4.94371
6.65043
4.94371
6.65043
2.22732
16.2161
16.2161
16.2161
16.2161
4.00334
4.00334
4.00334
4.00334
1.08688
1.08688
1.08688
1.08688
3.08378
3.08378
3.08378
3.08378
7.76551
3.95017
9.41429
3.95017
9.41429
3.95017
9.41429
3.95017
9.41429
4.0715
4.08305
7.1051
6.82915
6.84955
6.84955
6.84955
6.84955
0.316641
5.07277
10.4043
0.316641
5.07277
10.4043
0.316641
5.07277
10.4043
0.316641
5.07277
10.4043
0.487139
3.72113
0.487139
3.72113
0.487139
3.72113
0.487139
3.72113
5.47844
1.83021
5.71244
4.03435
6.40404
2.8178
3.03989
10.6944
10.6944
10.6944
10.6944
11.5408
2.50696
3.72562
8.16299
8.79504
5.28736
0.836085
2.69895
5.25409
0.692611
2.73755
5.24319
0.70602
2.74296
1.2307
5.64387
1.5684
2.30929
1.2307
5.64387
1.5684
2.30929
1.2307
5.64387
1.5684
2.30929
1.2307
5.64387
1.5684
2.30929
0.80343
2.52945
0.0103114
2.60204
0.0124879
3.35647
0.00352004
0.476799
2.22783
0.476799
2.22783
0.476799
2.22783
0.476799
2.22783
5.26488
6.67892
2.76934
2.76934
2.76934
2.76934
8.6048
8.6048
8.90063
8.90063
8.90063
8.90063
8.6048
8.6048
5.88575
5.77549
5.77549
1.99862
1.99862
7.44689
3.25841
3.82011
4.62076
1.71794
0.276077
1.71794
0.276077
1.71794
0.276077
1.71794
0.276077
1.15383
0.2168
1.15383
0.2168
1.15383
0.2168
1.15383
0.2168
0.234921
0.234921
0.234921
0.234921
0.38556
7.01007
0.38556
7.01007
0.38556
7.01007
0.38556
7.01007
3.72173
1.57396
0.244202
0.244202
0.244202
0.244202
2.84416
2.84416
0.211019
0.211019
2.84416
2.84416
0.211019
0.211019
13.8292
0.421994
13.8471
0.519322
5.11157
0.620647
9.32406
5.50698
5.50698
5.50698
5.50698
3.94334
3.94334
3.94334
3.94334
4.02699
4.02699
4.02699
4.02699
7.33381
2.44266
1.39656
0.662101
3.66427
1.12346
5.92569
1.12346
5.92569
1.12346
5.92569
1.12346
5.92569
1.4912
1.4912
1.4912
1.4912
2.06189
4.87142
2.06189
4.87142
2.06189
4.87142
2.06189
4.87142
0.0311649
0.992451
5.13526
4.54958
0.992451
5.13526
4.54958
2.57367
7.14919
5.76758
2.57367
7.13701
5.76758
1.92369
8.73028
1.92369
8.73028
1.92369
8.73028
1.92369
8.73028
6.2561
13.541
2.93055
2.98813
0.639889
2.16952
2.73916
7.75508
1.37044
1.37044
1.37044
1.37044
6.15847
3.29796
1.56616
4.95517
4.3444
4.3444
4.3444
4.3444
9.4528
1.61869
0.941351
1.61636
1.85499
8.57541
1.85499
8.57541
1.85499
8.57541
1.85499
8.57541
7.21573
7.21573
7.21573
7.21573
13.5726
13.5726
13.5726
13.5726
0.144155
8.82117
8.43898
4.1504
0.543878
8.21899
1.95659
8.21899
1.95659
8.21899
1.95659
8.21899
1.95659
0.321884
1.77663
0.321884
1.77663
0.321884
1.77663
0.321884
1.77663
0.901909
0.842561
4.79787
4.50718
1.93353
0.180111
0.180111
0.180111
0.180111
3.60304
4.9042
4.29775
2.54039
1.98309
0.728699
8.15194
8.15194
8.15194
8.15194
10.4969
11.2838
10.4969
11.2838
9.63762
9.16845
9.68484
9.27518
7.73212
7.73212
7.73212
7.73212
3.98754
3.98754
3.98754
3.98754
2.38864
2.38864
2.38864
2.38864
3.64648
3.99242
3.64648
3.99242
3.64648
3.99242
3.64648
3.99242
4.70322
2.45646
1.42201
1.42201
1.42201
1.42201
4.87596
4.87596
4.87596
4.87596
0.571611
0.95061
2.62119
7.42327
5.25612
7.42327
5.25612
7.42327
5.25612
7.42327
5.25612
6.33321
6.7866
7.94318
6.82599
6.28401
6.75336
4.20228
2.71871
4.24124
11.0197
11.0197
11.0197
11.0197
3.99874
7.26727
7.26727
7.26727
7.26727
4.10604
14.0238
10.0638
7.60524
1.3774
3.94727
3.75085
3.87654
3.75292
5.85243
6.00475
0.592491
8.37759
0.592491
8.37759
0.592491
8.37759
0.592491
8.37759
2.45261
11.0729
2.45261
11.0729
1.94645
8.74933
1.94645
8.74933
2.45261
11.0729
2.45261
11.0729
1.94645
8.74933
1.94645
8.74933
3.18793
0.802859
7.77938
4.90709
1.66617
0.220456
0.220455
0.220456
0.220455
6.55776
7.168
8.32897
6.56277
8.32897
6.56277
8.29759
6.55215
8.26173
6.41265
0.535929
0.539019
4.29315
7.65249
1.55727
9.25605
7.51049
8.0167
0.71852
7.37007
2.5155
0.718528
7.37008
2.51551
0.726416
7.37773
2.52936
0.730655
7.37174
2.51056
7.19868
0.439879
7.19868
3.96346
0.439879
1.70296
6.37397
0.824884
4.10367
3.68931
3.06232
5.91704
3.63917
1.52346
4.84963
3.4038
2.69924
1.57111
2.69924
1.57111
2.69924
1.57111
2.69924
1.57111
0.509595
0.23993
0.233345
3.89623
3.89623
3.87927
3.91713
4.48957
5.58098
3.37239
2.31035
3.37239
2.31035
3.37239
2.31035
3.37239
2.31035
2.9577
10.0809
8.65565
2.95353
10.0803
8.65417
2.95392
10.0811
8.65457
13.1437
13.1415
11.7456
5.21577
5.21577
1.22197
1.22197
5.21577
1.22197
5.21577
1.22197
4.41255
4.41255
4.41255
4.41255
4.00525
4.00525
4.00525
4.00525
2.53896
4.73783
2.80952
1.24341
2.53896
4.73783
2.80952
1.24341
2.53896
4.73783
2.80952
1.24341
2.53896
4.73783
2.80952
1.24341
0.243733
0.243733
0.243733
0.243733
1.32211
4.24459
1.32124
4.24966
8.33012
12.3276
0.744673
0.744673
0.744673
0.744673
3.3304
0.628191
3.3304
0.628191
3.3304
0.628191
3.3304
0.628191
5.71813
5.71813
5.71813
5.71813
2.74349
3.38389
1.32892
1.8256
4.29826
3.10807
3.20248
0.0921733
10.6968
3.09878
4.01284
6.41435
3.6726
6.41435
3.6726
6.41435
3.6726
6.41435
3.6726
7.76166
1.69679
0.383945
2.83183
6.5586
2.83183
6.5586
0.394425
6.37694
1.44418
5.73083
4.97814
4.97814
1.28518
0.29233
2.34143
4.26028
4.26028
4.26028
4.26028
5.87498
10.3327
5.58499
2.40938
3.63728
5.37183
5.60288
5.60288
5.60288
5.60288
0.994057
0.994057
0.994057
0.994057
4.01328
8.54464
4.01328
8.54464
4.01328
8.54464
4.01328
8.54464
0.748997
0.488529
0.526515
3.78898
0.526515
3.78898
0.526515
3.78898
0.526515
3.78898
2.89085
3.09034
8.27294
3.09034
8.27294
3.09034
8.27294
3.09034
8.27294
12.7897
0.431343
3.15392
0
16.0858
0
16.0858
16.0858
16.0858
0
16.0858
16.0858
0
16.0858
16.0858
6.77887
5.71195
7.58964
7.7008
7.7008
7.7008
7.7008
1.62353
2.14009
1.62353
2.14009
1.62353
2.14009
1.62353
2.14009
2.68137
2.83601
2.89169
2.89169