/*--------------------------------*- C++ -*----------------------------------*\
| =========                 |                                                 |
| \\      /  F ield         | OpenFOAM: The Open Source CFD Toolbox           |
|  \\    /   O peration     | Version:  v2106                                 |
|   \\  /    A nd           | Website:  www.openfoam.com                      |
|    \\/     M anipulation  |                                                 |
\*---------------------------------------------------------------------------*/
FoamFile
{
    version     2.0;
    format      ascii;
    arch        "LSB;label=32;scalar=64";
    class       surfaceScalarField;
    location    "constant";
    object      face_cellVolumeRatio;
}
// * * * * * * * * * * * * * * * * * * * * * * * * * * * * * * * * * * * * * //

dimensions      [0 0 0 0 0 0 0];

internalField   nonuniform List<scalar> 
3923
(
0.958171
0.893954
0.680699
0.982465
0.78846
0.647818
0.943937
0.698971
0.647818
0.943937
0.698971
0.647818
0.943937
0.698971
0.647818
0.943937
0.698971
0.717444
0.938188
0.865041
0.717444
0.938188
0.865041
0.717444
0.938188
0.865041
0.717444
0.938188
0.865041
0.917606
0.886641
0.917606
0.886641
0.917606
0.886641
0.917606
0.886641
0.880932
0.92165
0.784242
0.767623
0.755092
0.874149
0.767623
0.755092
0.874149
0.791358
0.747538
0.824714
0.787146
0.755656
0.829163
0.794053
0.824015
0.557701
0.794053
0.824015
0.557701
0.794053
0.824015
0.557701
0.794053
0.824015
0.557701
0.820507
0.836122
0.758973
0.761431
0.980651
0.624409
0.999086
0.808252
0.893359
0.862502
0.747993
0.934353
0.961662
0.932081
0.934353
0.961662
0.932081
0.934353
0.961662
0.932081
0.934353
0.961662
0.932081
0.937218
0.901571
0.70248
0.937218
0.901571
0.70248
0.937218
0.901571
0.698071
0.937218
0.901571
0.698071
0.73523
0.862157
0.786057
0.78192
0.766266
0.786057
0.78192
0.766266
0.786057
0.78192
0.766266
0.786057
0.78192
0.766266
0.914818
0.693904
0.914818
0.693904
0.914818
0.693904
0.914818
0.693904
0.857606
0.877067
0.815129
0.611723
0.57133
0.762548
0.534216
0.85253
0.783258
0.572306
0.85253
0.783258
0.572306
0.85253
0.783258
0.572306
0.85253
0.783258
0.572306
0.831946
0.667814
0.831946
0.655808
0.831946
0.62837
0.831946
0.654895
0.786291
0.809097
0.778981
0.786291
0.809097
0.778981
0.786291
0.809097
0.778981
0.786291
0.809097
0.778981
0.88869
0.846874
0.589261
0.88869
0.846874
0.589261
0.88869
0.846874
0.589261
0.88869
0.846874
0.589261
0.911608
0.795499
0.82468
0.911608
0.795499
0.82468
0.911608
0.795499
0.82468
0.911608
0.795499
0.82468
0.85583
0.961825
0.85583
0.961825
0.85583
0.961825
0.85583
0.961825
0.919809
0.871371
0.831053
0.711653
0.919809
0.871371
0.919809
0.871371
0.831053
0.711653
0.831053
0.711653
0.919809
0.871371
0.831053
0.711653
0.638521
0.889163
0.884188
0.893372
0.861566
0.986353
0.893372
0.861566
0.986353
0.893372
0.861566
0.986353
0.893372
0.861566
0.986353
0.857237
0.998019
0.857237
0.998019
0.857237
0.998019
0.857237
0.998019
0.703928
0.894001
0.976564
0.703928
0.894001
0.976676
0.697047
0.884885
0.989325
0.678439
0.883748
0.998809
0.918213
0.868737
0.61762
0.833762
0.796459
0.918213
0.868737
0.61762
0.833762
0.796459
0.918213
0.868737
0.61762
0.833762
0.796459
0.918213
0.868737
0.61762
0.833762
0.796459
0.970491
0.791227
0.741769
0.8526
0.691476
0.864367
0.98814
0.877667
0.649881
0.752549
0.764825
0.649881
0.752549
0.764825
0.649881
0.752549
0.764825
0.649881
0.752549
0.764825
0.731477
0.697201
0.688107
0.731477
0.697201
0.688107
0.731477
0.697192
0.688107
0.731477
0.697192
0.688107
0.710758
0.712631
0.881416
0.951094
0.887767
0.790491
0.804931
0.919607
0.968559
0.924059
0.648986
0.784428
0.818279
0.951094
0.887767
0.80307
0.946656
0.925404
0.811102
0.803436
0.919607
0.786032
0.883782
0.827666
0.912302
0.931128
0.739552
0.930209
0.635956
0.851411
0.711864
0.61205
0.801597
0.799685
0.928492
0.923232
0.928492
0.923232
0.928492
0.923232
0.928492
0.923232
0.801604
0.75761
0.908006
0.801604
0.75761
0.908006
0.801604
0.75761
0.908006
0.801604
0.75761
0.908006
0.933054
0.958711
0.793675
0.933054
0.958711
0.793675
0.933014
0.958711
0.793675
0.933014
0.958711
0.793675
0.829977
0.725567
0.902786
0.829977
0.725567
0.902786
0.829977
0.725567
0.902786
0.829977
0.725567
0.902786
0.649686
0.746086
0.925075
0.831619
0.684075
0.925075
0.831619
0.684075
0.925075
0.831619
0.684075
0.925075
0.831619
0.684075
0.721014
0.901875
0.721014
0.901875
0.721014
0.901875
0.721014
0.901875
0.966118
0.77268
0.966118
0.77268
0.966118
0.77268
0.966118
0.77268
0.993572
0.951921
0.608671
0.758914
0.936655
0.91903
0.91903
0.91903
0.91903
0.704238
0.817965
0.704238
0.817965
0.704828
0.818004
0.705014
0.818004
0.832956
0.631555
0.855202
0.728674
0.994667
0.99105
0.953847
0.962356
0.856494
0.793898
0.808389
0.766197
0.788314
0.741621
0.758687
0.682982
0.836013
0.865143
0.686579
0.985462
0.692264
0.889449
0.873024
0.696422
0.873823
0.752392
0.9654
0.953677
0.9654
0.953677
0.9654
0.953677
0.9654
0.953677
0.961663
0.860573
0.632029
0.961663
0.860573
0.632029
0.941383
0.510694
0.941383
0.510694
0.961663
0.860573
0.632029
0.961663
0.860573
0.632029
0.941383
0.510694
0.941383
0.510694
0.952265
0.900089
0.998085
0.945123
0.960633
0.934169
0.850744
0.843601
0.931175
0.919845
0.931176
0.919845
0.930654
0.920408
0.930248
0.920408
0.872116
0.970477
0.888922
0.940073
0.976825
0.70499
0.978891
0.907557
0.887958
0.984397
0.986181
0.887958
0.984397
0.986181
0.887773
0.984899
0.986246
0.887958
0.984397
0.986181
0.85752
0.915218
0.806411
0.85752
0.915218
0.806411
0.85752
0.915218
0.806411
0.85752
0.915218
0.806411
0.773205
0.999934
0.90313
0.947446
0.767957
0.836057
0.947446
0.767957
0.836057
0.947446
0.767957
0.836057
0.947446
0.767957
0.836057
0.9041
0.896475
0.9041
0.896475
0.9041
0.896475
0.9041
0.896475
0.835268
0.799317
0.639474
0.835268
0.799317
0.639474
0.835268
0.799317
0.639474
0.835268
0.799317
0.639474
0.985949
0.8831
0.991467
0.829082
0.831141
0.59225
0.708207
0.875257
0.852106
0.588307
0.837437
0.829082
0.717093
0.833046
0.573018
0.871087
0.743606
0.834632
0.623552
0.867918
0.867918
0.867918
0.867918
0.960589
0.907572
0.960589
0.907572
0.960589
0.907572
0.960589
0.907572
0.678198
0.873329
0.662867
0.966853
0.797145
0.977956
0.966853
0.797145
0.977956
0.966853
0.797145
0.977956
0.966853
0.797145
0.977956
0.780631
0.768553
0.780631
0.768553
0.780631
0.768553
0.780631
0.768553
0.729324
0.773348
0.782147
0.992557
0.991587
0.993437
0.890351
0.824823
0.741084
0.824823
0.741084
0.824823
0.741084
0.824823
0.741084
0.82983
0.847726
0.78254
0.968141
0.836111
0.893057
0.972225
0.893057
0.972225
0.893057
0.972088
0.893057
0.972225
0.973394
0.665063
0.927278
0.671853
0.947792
0.857352
0.671853
0.947792
0.857352
0.671853
0.947792
0.857352
0.671853
0.947792
0.857352
0.887765
0.887765
0.887765
0.887765
0.935727
0.771141
0.935727
0.771141
0.935727
0.771141
0.935727
0.771141
0.875855
0.800527
0.875855
0.800527
0.875855
0.800527
0.875855
0.800527
0.955808
0.852925
0.92304
0.886566
0.92304
0.886566
0.92304
0.886566
0.92304
0.886566
0.968897
0.912197
0.968897
0.912197
0.968897
0.912197
0.968897
0.912197
0.994389
0.865231
0.774839
0.75269
0.774839
0.75269
0.774839
0.75269
0.774839
0.75269
0.755231
0.75433
0.861812
0.684036
0.712765
0.763503
0.957357
0.732009
0.972815
0.780591
0.680188
0.844554
0.782951
0.678358
0.844724
0.985406
0.985406
0.985406
0.985406
0.918308
0.7031
0.915634
0.724691
0.937708
0.696498
0.937708
0.696498
0.928285
0.685752
0.910964
0.666602
0.970393
0.772938
0.970393
0.772938
0.970393
0.835981
0.970393
0.835981
0.759073
0.995329
0.759073
0.995329
0.759073
0.995329
0.759073
0.995329
0.896651
0.973064
0.846434
0.846434
0.846434
0.846434
0.827736
0.827736
0.827736
0.827736
0.956465
0.805389
0.85951
0.664903
0.85951
0.664903
0.85951
0.664903
0.85951
0.664903
0.758392
0.888609
0.758392
0.888609
0.758392
0.888609
0.758392
0.888609
0.933625
0.838543
0.933625
0.838543
0.933625
0.838543
0.933625
0.838543
0.92677
0.909476
0.829595
0.892308
0.829595
0.892308
0.829595
0.892308
0.829595
0.892308
0.986622
0.996829
0.84266
0.986622
0.996829
0.84266
0.986622
0.996829
0.84266
0.986622
0.996829
0.84266
0.77303
0.729099
0.848596
0.705417
0.728145
0.602417
0.764165
0.706569
0.582333
0.726802
0.665362
0.970074
0.999871
0.970074
0.999871
0.970074
0.999871
0.970074
0.999871
0.96108
0.706897
0.773081
0.805351
0.773081
0.805351
0.773081
0.805351
0.773081
0.805351
0.832038
0.663443
0.64017
0.832038
0.663443
0.64017
0.832038
0.663443
0.64017
0.832038
0.663443
0.64017
0.840558
0.944516
0.990373
0.840558
0.944516
0.990373
0.840264
0.944273
0.98977
0.840558
0.944516
0.990373
0.921732
0.93668
0.985519
0.921732
0.93668
0.985519
0.921732
0.93668
0.985519
0.921732
0.93668
0.985519
0.965189
0.817115
0.801374
0.974763
0.713534
0.801374
0.974763
0.713534
0.801374
0.974763
0.713534
0.801374
0.974763
0.713534
0.925989
0.979183
0.861815
0.806314
0.820379
0.76601
0.806314
0.820379
0.76601
0.806314
0.820379
0.76601
0.806314
0.820379
0.76601
0.993819
0.695893
0.993819
0.695893
0.993819
0.695893
0.993819
0.695893
0.980005
0.95156
0.854836
0.793366
0.895789
0.980005
0.95156
0.854836
0.793366
0.895789
0.980005
0.95156
0.854836
0.793366
0.895789
0.980005
0.95156
0.854836
0.793366
0.895789
0.845094
0.608778
0.845094
0.608778
0.845094
0.608778
0.845094
0.608778
0.967122
0.984005
0.967122
0.984005
0.967122
0.984005
0.967122
0.984005
0.797831
0.96309
0.838483
0.797831
0.96309
0.838483
0.797831
0.96309
0.838483
0.797831
0.96309
0.838483
0.804695
0.986404
0.773513
0.804695
0.986404
0.773513
0.804695
0.986404
0.773513
0.804695
0.986404
0.773513
0.991358
0.707751
0.734951
0.991358
0.827816
0.707751
0.991358
0.734951
0.707751
0.991358
0.778468
0.707751
0.783196
0.783196
0.783196
0.783196
0.881371
0.881371
0.881371
0.881371
0.958161
0.822653
0.958161
0.822653
0.958161
0.822653
0.958161
0.822653
0.997932
0.836103
0.807162
0.676229
0.751832
0.911444
0.948125
0.911444
0.948125
0.823796
0.823796
0.911444
0.948125
0.823796
0.911444
0.948125
0.823796
0.980339
0.983561
0.865557
0.882591
0.882591
0.882591
0.882591
0.785262
0.886254
0.84212
0.95608
0.84212
0.95608
0.84212
0.95608
0.84212
0.95608
0.683708
0.921427
0.683708
0.921427
0.683708
0.921427
0.683708
0.921427
0.739017
0.739017
0.739017
0.739017
0.811559
0.767205
0.891513
0.811559
0.767205
0.891513
0.811559
0.767205
0.891513
0.811559
0.767205
0.891513
0.919006
0.919006
0.924906
0.924906
0.919966
0.895086
0.901705
0.859943
0.919966
0.895086
0.901705
0.859943
0.919966
0.895086
0.901705
0.859943
0.919966
0.895086
0.901705
0.859943
0.74563
0.984024
0.752567
0.819804
0.892503
0.983054
0.663021
0.854798
0.766081
0.967581
0.916077
0.967581
0.916077
0.967581
0.916077
0.967581
0.916077
0.647854
0.6954
0.641988
0.6966
0.631848
0.695036
0.623388
0.695607
0.944148
0.946557
0.944148
0.946557
0.944148
0.946557
0.944148
0.946557
0.784825
0.859263
0.784825
0.859263
0.786598
0.8598
0.784825
0.859263
0.926573
0.718055
0.796219
0.683314
0.971692
0.78503
0.971692
0.78503
0.971692
0.78503
0.971692
0.78503
0.812864
0.924147
0.744535
0.812864
0.924147
0.744535
0.812864
0.924147
0.744535
0.812864
0.924147
0.744535
0.766796
0.793197
0.989574
0.844153
0.771067
0.987499
0.962443
0.987499
0.962443
0.987499
0.962443
0.987499
0.962443
0.945071
0.966381
0.844045
0.945071
0.966381
0.844046
0.882894
0.966381
0.844261
0.928024
0.966381
0.844035
0.582704
0.574703
0.582704
0.574703
0.582704
0.582704
0.574703
0.574703
0.925554
0.77901
0.896913
0.925554
0.77901
0.896913
0.925554
0.77901
0.896913
0.925554
0.77901
0.896913
0.796843
0.755745
0.920322
0.796843
0.755745
0.920322
0.796843
0.755745
0.920322
0.796843
0.755745
0.920322
0.811566
0.906766
0.838039
0.838039
0.838039
0.838039
0.823113
0.757694
0.929864
1
1
1
1
0.966034
0.813316
0.720623
0.581221
0.962009
0.693167
0.841081
0.551298
0.583335
0.981509
0.583335
0.981509
0.583335
0.981509
0.583335
0.981509
0.647937
0.779667
0.984494
0.647937
0.779667
0.984494
0.647937
0.779667
0.984494
0.647937
0.779667
0.984494
0.930415
0.899822
0.770171
0.683111
0.693705
0.840905
0.895981
0.840905
0.895981
0.840905
0.895981
0.840905
0.895981
0.916368
0.86121
0.989662
0.738158
0.800169
0.826122
0.800169
0.826122
0.800169
0.826122
0.800169
0.826122
0.609413
0.790867
0.994722
0.680595
0.994722
0.680595
0.994722
0.681029
0.994722
0.681541
0.825081
0.944655
0.820464
0.938368
0.825387
0.945556
0.821335
0.937798
0.741596
0.840034
0.927716
0.745943
0.948416
0.744805
0.927154
0.745286
0.943054
0.744503
0.999051
0.884679
0.969387
0.707366
0.969387
0.707366
0.969387
0.707366
0.969387
0.707366
0.960231
0.837716
0.960231
0.837716
0.960231
0.837716
0.960231
0.837716
0.949667
0.788916
0.876927
0.849261
0.999952
0.9717
0.991802
0.782873
0.9717
0.991802
0.782873
0.9717
0.9717
0.991802
0.782873
0.991802
0.782873
0.956983
0.931321
0.951728
0.632334
0.632334
0.632334
0.632334
0.97388
0.951411
0.900733
0.951411
0.900733
0.951411
0.900733
0.951411
0.900733
0.865164
0.772158
0.898521
0.869547
0.786423
0.929408
0.865164
0.772152
0.898521
0.913402
0.792297
0.961616
0.7733
0.751097
0.867247
0.773306
0.751104
0.867244
0.776525
0.754568
0.802859
0.773537
0.742435
0.830564
0.986055
0.713199
0.987725
0.90772
0.866854
0.987725
0.90772
0.866854
0.987725
0.90772
0.866854
0.987725
0.90772
0.866854
0.946236
0.832602
0.946236
0.832602
0.917896
0.84976
0.917912
0.854416
0.901563
0.794003
0.850244
0.901563
0.794003
0.850244
0.902082
0.777741
0.901563
0.794003
0.850244
0.902082
0.777741
0.901563
0.794003
0.850244
0.902082
0.777741
0.902082
0.777741
0.980782
0.77505
0.995442
0.93609
0.828129
0.980782
0.77505
0.995442
0.980782
0.77505
0.995442
0.93609
0.828129
0.93609
0.828129
0.980782
0.77505
0.995442
0.93609
0.828129
0.882618
0.914184
0.911885
0.882618
0.914184
0.911885
0.882618
0.914184
0.911885
0.882618
0.914184
0.911885
0.961737
0.8008
0.963765
0.800804
0.963765
0.852485
0.957344
0.801514
0.957335
0.762092
0.899668
0.872381
0.828295
0.828295
0.828295
0.828295
0.911807
0.886982
0.904683
0.886914
0.862903
0.862903
0.86296
0.862853
0.810945
0.921431
0.883521
0.810945
0.921431
0.883521
0.819352
0.892309
0.901027
0.810945
0.921431
0.883521
0.946432
0.946432
0.946432
0.946432
0.869994
0.869994
0.869994
0.869994
0.824399
0.751891
0.790073
0.824399
0.751891
0.790073
0.815916
0.748803
0.776956
0.815916
0.748803
0.776956
0.966786
0.98843
0.966786
0.98843
0.966786
0.98843
0.966786
0.98843
0.867411
0.789765
0.955769
0.995517
0.905708
0.955769
0.995517
0.905708
0.955769
0.995517
0.905708
0.955769
0.995517
0.905708
0.931355
0.773809
0.863033
0.970143
0.942662
0.999481
0.999481
0.999481
0.999481
0.839865
0.814045
0.970911
0.871035
0.677807
0.95473
0.825673
0.685756
0.954935
0.82559
0.935398
0.687218
0.799921
0.932446
0.711454
0.765307
0.844141
0.844141
0.844141
0.844141
0.693474
0.915738
0.856646
0.915738
0.856646
0.915738
0.856646
0.915738
0.856646
0.691479
0.691479
0.691479
0.691479
0.85807
0.94646
0.85807
0.94646
0.865828
0.967299
0.832217
0.899142
0.791926
0.744877
0.944762
0.791926
0.744877
0.944762
0.791926
0.744877
0.944762
0.791926
0.744877
0.944762
0.904958
0.747759
0.876001
0.904958
0.747759
0.876001
0.904958
0.747759
0.876001
0.904958
0.747759
0.876001
0.902009
0.836151
0.902009
0.836151
0.902009
0.836151
0.902009
0.836151
0.983207
0.813735
0.983207
0.813735
0.983207
0.813735
0.983207
0.813735
0.95547
0.907132
0.7132
0.840466
0.72039
0.95547
0.907132
0.7132
0.840466
0.72039
0.95547
0.907132
0.7132
0.840466
0.72039
0.95547
0.907132
0.7132
0.840466
0.72039
0.772598
0.800088
0.772598
0.800088
0.772598
0.800088
0.772598
0.800088
0.993168
0.993168
0.993168
0.993168
0.982069
0.623458
0.892315
0.789378
0.615724
0.615724
0.615724
0.615724
0.959958
0.966143
0.959958
0.966143
0.959958
0.966143
0.959958
0.966143
0.940059
0.905775
0.711352
0.702595
0.940059
0.905775
0.711352
0.702595
0.940059
0.905775
0.711352
0.702595
0.940059
0.905775
0.711352
0.702595
0.862138
0.865811
0.697772
0.822026
0.929358
0.920229
0.847205
0.920229
0.847205
0.920229
0.847205
0.920229
0.847205
0.729668
0.967624
0.9432
0.864864
0.729668
0.967624
0.9432
0.864864
0.729668
0.967624
0.9432
0.864864
0.729668
0.967624
0.9432
0.864864
0.683281
0.967234
0.892428
0.683623
0.965369
0.919786
0.992704
0.723118
0.992704
0.723118
0.992704
0.723118
0.992704
0.723118
0.952738
0.712808
0.572406
0.801792
0.88895
0.801792
0.88895
0.801792
0.88895
0.801792
0.88895
0.75022
0.872709
0.769955
0.750501
0.872709
0.769924
0.764454
0.844551
0.811894
0.76241
0.841365
0.769935
0.993602
0.993602
0.981068
0.981068
0.845952
0.798304
0.729905
0.845952
0.798304
0.729905
0.845952
0.798304
0.729905
0.845952
0.798304
0.729905
0.924844
0.776479
0.927195
0.779812
0.988005
0.862684
0.918872
0.988005
0.862684
0.918872
0.988005
0.862684
0.918872
0.988005
0.862684
0.918872
0.874229
0.682037
0.874229
0.682037
0.874229
0.682037
0.874229
0.682037
0.946747
0.806344
0.792452
0.898112
0.99004
0.881925
0.67132
0.958226
0.992093
0.860401
0.681533
0.961142
0.99004
0.884787
0.650009
0.958226
0.599473
0.955252
0.599473
0.955252
0.599473
0.955252
0.599473
0.955252
0.867606
0.581832
0.867606
0.581832
0.866129
0.58168
0.867606
0.581832
0.878441
0.78254
0.878441
0.78254
0.878441
0.78254
0.878441
0.78254
0.899901
0.692564
0.899901
0.692647
0.876025
0.659203
0.899901
0.692639
0.908758
0.998601
0.927724
0.940073
0.993561
0.986213
0.956522
0.956522
0.956455
0.956522
0.875247
0.975121
0.632198
0.878581
0.656519
0.868863
0.975531
0.919787
0.855404
0.718193
0.646772
0.975531
0.919787
0.855664
0.718311
0.646772
0.788874
0.883234
0.923373
0.751051
0.730689
0.794002
0.920638
0.923007
0.750492
0.726099
0.737943
0.737943
0.737943
0.737943
0.849005
0.870747
0.849005
0.870747
0.849005
0.870747
0.849005
0.870747
0.792067
0.917213
0.843679
0.780744
0.68227
0.837182
0.976323
0.837182
0.976323
0.85991
0.880447
0.967543
0.845002
0.912109
0.989983
0.862388
0.668549
0.805924
0.939901
0.936738
0.867331
0.930757
0.936738
0.867331
0.930757
0.936738
0.867331
0.930757
0.936738
0.867331
0.930757
0.827808
0.874783
0.814986
0.870474
0.954714
0.80404
0.972656
0.948428
0.610155
0.899559
0.899559
0.899559
0.899559
0.987934
0.79795
0.920198
0.927028
0.837619
0.762838
0.935121
0.74481
0.987705
0.934773
0.731025
0.755971
0.885998
0.809765
0.792313
0.755971
0.885998
0.809765
0.792313
0.755971
0.885998
0.809765
0.792313
0.755971
0.885998
0.809765
0.792313
0.682454
0.682454
0.682454
0.682454
0.859358
0.872661
0.936593
0.944759
0.889073
0.942208
0.893385
0.876363
0.688482
0.876363
0.688482
0.876363
0.688482
0.876363
0.688482
0.975903
0.885559
0.820544
0.888824
0.791492
0.912001
0.856392
0.992793
0.954076
0.992793
0.954076
0.992793
0.954076
0.992793
0.954076
0.999843
0.820591
0.838532
0.906321
0.835955
0.835955
0.835955
0.835955
0.917275
0.906222
0.999302
0.930867
0.884838
0.717875
0.942471
0.724077
0.942471
0.724077
0.942471
0.724077
0.942471
0.724077
0.997766
0.882258
0.934096
0.91785
0.837369
0.800137
0.759013
0.800137
0.759013
0.800137
0.759013
0.800137
0.759013
0.972971
0.759639
0.972971
0.759639
0.972971
0.759639
0.972971
0.759639
0.976647
0.77261
0.664038
0.923839
0.858643
0.88032
0.858643
0.88032
0.858643
0.88032
0.858643
0.88032
0.871002
0.813004
0.871002
0.813004
0.871002
0.813004
0.871002
0.813004
0.922881
0.892583
0.999642
0.861402
0.997749
0.861583
0.97313
0.95264
0.97087
0.947958
0.807966
0.839974
0.986757
0.839974
0.986757
0.839974
0.986757
0.839974
0.986757
0.86711
0.86711
0.86711
0.86711
0.718901
0.657427
0.657427
0.657427
0.657427
0.721599
0.940156
0.741985
0.86365
0.721598
0.940242
0.771774
0.933596
0.946084
0.918732
0.719109
0.801151
0.719109
0.801151
0.719109
0.801151
0.719109
0.801151
0.989279
0.947944
0.644233
0.802124
0.644233
0.802124
0.644233
0.802124
0.644233
0.802124
0.987813
0.960786
0.943409
0.838532
0.918747
0.787601
0.982239
0.970201
0.838532
0.918754
0.814216
0.982239
0.970201
0.88706
0.770806
0.642124
0.935661
0.984964
0.929672
0.850628
0.784349
0.99923
0.962009
0.848776
0.849472
0.805979
0.848776
0.849472
0.805979
0.848776
0.849472
0.805979
0.848776
0.849472
0.805979
0.784664
0.752054
0.933577
0.69283
0.933577
0.69283
0.884358
0.722233
0.884358
0.722233
0.933577
0.69283
0.884358
0.722233
0.933577
0.69283
0.884358
0.722233
0.978379
0.889314
0.978379
0.889314
0.978379
0.889314
0.978379
0.889314
0.955275
0.839662
0.6774
0.885613
0.968415
0.942881
0.976116
0.871354
0.940292
0.976116
0.871354
0.940292
0.976116
0.871354
0.940292
0.976116
0.871354
0.940292
0.92213
0.92213
0.92213
0.92213
0.774199
0.966244
0.640793
0.966244
0.640793
0.966244
0.640793
0.966244
0.640793
0.901494
0.962265
0.901494
0.962265
0.901494
0.962265
0.901494
0.962265
0.917047
0.987845
0.917047
0.987845
0.917047
0.987845
0.917047
0.987845
0.940045
0.774953
0.940045
0.777644
0.907394
0.773801
0.940045
0.777287
0.612591
0.704294
0.704238
0.704238
0.704238
0.704238
0.920926
0.85269
0.957768
0.971638
0.957768
0.971638
0.957768
0.971638
0.957768
0.971638
0.87172
0.91379
0.785478
0.87172
0.91379
0.785478
0.933323
0.87172
0.91379
0.785478
0.933323
0.933323
0.87172
0.91379
0.785478
0.933323
0.978485
0.919873
0.978485
0.919873
0.978485
0.919873
0.978485
0.919873
0.822793
0.707673
0.951062
0.852055
0.831287
0.951062
0.852055
0.831287
0.951062
0.852055
0.831287
0.951062
0.852055
0.831287
0.921975
0.569422
0.724787
0.745342
0.724787
0.745342
0.724787
0.745342
0.724787
0.745342
0.827418
0.827418
0.827418
0.827418
0.925685
0.753876
0.925685
0.753876
0.925685
0.753876
0.925685
0.753876
0.847248
0.974596
0.899047
0.903172
0.903172
0.903172
0.903172
0.863304
0.993828
0.903671
0.918583
0.803244
0.734787
0.754169
0.803244
0.734787
0.754169
0.803244
0.734787
0.754169
0.803244
0.734787
0.754169
0.683076
0.683076
0.683076
0.683076
0.844817
0.898719
0.844817
0.898719
0.842518
0.9244
0.839344
0.924836
0.957317
0.574121
0.957317
0.574121
0.945363
0.574121
0.957317
0.574121
0.770781
0.875629
0.770781
0.875629
0.770813
0.875644
0.770813
0.875644
0.920255
0.920255
0.920255
0.920255
0.938405
0.958314
0.846737
0.846737
0.846737
0.846737
0.779731
0.90804
0.779731
0.90804
0.779731
0.90804
0.779731
0.90804
0.820734
0.844212
0.826322
0.844212
0.826322
0.844212
0.826322
0.844212
0.826322
0.836155
0.974575
0.883256
0.896892
0.883256
0.896892
0.883256
0.896892
0.883256
0.896892
0.992942
0.825164
0.757143
0.757143
0.757143
0.757143
0.764726
0.858804
0.764726
0.858804
0.764726
0.858804
0.764726
0.858804
0.929653
0.929653
0.929653
0.929653
0.861585
0.896945
0.861585
0.896945
0.861585
0.896945
0.861585
0.896945
0.889043
0.830759
0.851388
0.806235
0.980362
0.821127
0.851388
0.811881
0.916708
0.829487
0.94843
0.94843
0.94843
0.94843
0.884563
0.570035
0.884563
0.570035
0.884563
0.570035
0.884563
0.570035
0.900005
0.925254
0.716534
0.900005
0.925254
0.716534
0.900005
0.925254
0.716534
0.900005
0.925254
0.716534
0.907213
0.772591
0.907213
0.772586
0.885496
0.744844
0.907213
0.772575
0.960493
0.960493
0.960493
0.960493
0.752918
0.752918
0.752918
0.752918
0.927343
0.864615
0.969362
0.969362
0.969362
0.969362
0.886303
0.886303
0.886303
0.886303
0.761309
0.909954
0.78606
0.721402
0.938001
0.987673
0.969658
0.954305
0.939034
0.926643
0.939034
0.926643
0.939034
0.926643
0.939034
0.926643
0.899804
0.817358
0.779057
0.899804
0.817358
0.779057
0.899804
0.817358
0.779057
0.899804
0.817358
0.779057
0.951759
0.945984
0.911469
0.749641
0.710004
0.710004
0.710004
0.710004
0.912296
0.912296
0.912296
0.912296
0.876746
0.988214
0.818047
0.768672
0.829332
0.786317
0.786317
0.786317
0.786317
0.927613
0.856764
0.900292
0.663338
0.927613
0.856764
0.927613
0.856764
0.900292
0.663338
0.900292
0.663338
0.927613
0.856764
0.900292
0.663338
0.832188
0.985832
0.832188
0.985832
0.888001
0.951208
0.864615
0.967615
0.897582
0.777403
0.927455
0.777403
0.927455
0.777403
0.927455
0.777403
0.927455
0.852942
0.770737
0.852942
0.770737
0.852942
0.770737
0.852942
0.770737
0.950456
0.786074
0.950456
0.786074
0.950456
0.786074
0.950456
0.786074
0.941472
0.91814
0.907539
0.867735
0.592798
0.869359
0.592798
0.869359
0.592798
0.869359
0.592798
0.869359
0.81032
0.967655
0.796299
0.96574
0.96574
0.96574
0.96574
0.976738
0.998591
0.805832
0.780665
0.795917
0.759896
0.911393
0.760567
0.911393
0.760567
0.900494
0.746308
0.899958
0.745803
0.857711
0.637309
0.857711
0.637309
0.857711
0.637309
0.857711
0.637309
0.82783
0.749942
0.874798
0.758827
0.781991
0.708236
0.950656
0.860964
0.950656
0.860964
0.950656
0.860964
0.950656
0.860964
0.766618
0.766618
0.766618
0.766618
0.903917
0.945597
0.924161
0.955431
0.991152
0.904654
0.991154
0.904656
0.985414
0.90469
0.98553
0.89421
0.946267
0.971833
0.873121
0.809557
0.809557
0.809557
0.809557
0.945061
0.938872
0.939291
0.870777
0.871074
0.948331
0.856912
0.981151
0.914575
0.945667
0.861093
0.945667
0.861093
0.945667
0.861093
0.945667
0.861093
0.932093
0.689826
0.846259
0.846259
0.846438
0.846259
0.910096
0.953725
0.933533
0.910096
0.933533
0.953725
0.910096
0.953725
0.933533
0.910096
0.953725
0.933533
0.914427
0.802454
0.897378
0.897378
0.89709
0.897378
0.799904
0.792465
0.698816
0.810018
0.698816
0.810018
0.698816
0.810018
0.698816
0.810018
0.927671
0.899019
0.794818
0.843612
0.906662
0.977537
0.906662
0.977537
0.914284
0.904377
0.899349
0.940842
0.957084
0.957084
0.957084
0.957084
0.970409
0.732718
0.970409
0.732718
0.970409
0.732718
0.970409
0.732718
0.95609
0.67139
0.867623
0.924415
0.924415
0.924415
0.924415
0.872374
0.98538
0.817928
0.973869
0.840521
0.702004
0.93611
0.946203
0.702004
0.93611
0.946203
0.702004
0.93611
0.946203
0.702004
0.93611
0.946203
0.971955
0.66009
0.971801
0.661627
0.921093
0.669814
0.923291
0.670125
0.522271
0.522271
0.522271
0.522271
0.824409
0.948202
0.824409
0.948202
0.824409
0.948202
0.824409
0.948202
0.82749
0.971662
0.975315
0.963079
0.803258
0.798605
0.917307
0.987025
0.798605
0.917307
0.987025
0.798605
0.917307
0.987025
0.798605
0.917307
0.987025
0.724892
0.724892
0.744701
0.749786
0.768088
0.768088
0.768088
0.768088
0.922394
0.922394
0.922394
0.922394
0.748574
0.833686
0.748345
0.748574
0.818214
0.748574
0.825678
0.748345
0.748345
0.748574
0.818214
0.748345
0.997944
0.750445
0.997944
0.750445
0.997944
0.750445
0.997944
0.750445
0.813977
0.971152
0.813977
0.971152
0.813835
0.971184
0.814367
0.971184
0.645152
0.782489
0.860126
0.836535
0.975939
0.725149
0.725149
0.893763
0.847813
0.955283
0.955283
0.955283
0.955283
0.998104
0.884554
0.998104
0.884553
0.998133
0.884421
0.998133
0.88423
0.894778
0.788187
0.894778
0.788187
0.894778
0.788187
0.894778
0.788187
0.867237
0.867237
0.867237
0.867237
0.982496
0.887347
0.898812
0.73105
0.933841
0.927815
0.854645
0.892114
0.958908
0.97716
0.884828
0.976785
0.976785
0.976785
0.976785
0.743511
0.870267
0.764388
0.921758
0.764388
0.921758
0.764388
0.921758
0.764388
0.921758
0.766996
0.891733
0.766996
0.891733
0.766996
0.891733
0.766996
0.891733
0.931784
0.938344
0.870333
0.931784
0.938344
0.870333
0.931784
0.938344
0.870333
0.931784
0.938344
0.870333
0.805282
0.90193
0.931946
0.936342
0.948165
0.687571
0.687571
0.687571
0.687571
0.909302
0.991629
0.909302
0.991629
0.909302
0.991629
0.909302
0.991629
0.946597
0.958427
0.716207
0.946597
0.958427
0.716207
0.784663
0.959524
0.742545
0.811783
0.920975
0.710752
0.788989
0.788989
0.788989
0.788989
0.920303
0.888229
0.916488
0.684509
0.689699
0.94958
0.987372
0.94958
0.987372
0.94958
0.987372
0.94958
0.987372
0.919886
0.914398
0.914398
0.914398
0.914398
0.867428
0.867428
0.867428
0.867428
0.764225
0.764225
0.764225
0.764225
0.994337
0.994337
0.994337
0.994337
0.963981
0.9009
0.934068
0.9009
0.934068
0.9009
0.934068
0.9009
0.934068
0.788127
0.788425
0.784424
0.788618
0.929071
0.929071
0.929071
0.929071
0.99471
0.936944
0.82584
0.99471
0.936944
0.82584
0.99471
0.936944
0.82584
0.99471
0.936944
0.82584
0.924592
0.936077
0.924592
0.936077
0.924592
0.936077
0.924592
0.936077
0.914757
0.823259
0.907602
0.789026
0.837321
0.984328
0.875718
0.747478
0.747478
0.747478
0.747478
0.768827
0.868772
0.914729
0.903662
0.846786
0.654715
0.904836
0.784644
0.655272
0.906938
0.783466
0.655455
0.906959
0.78363
0.958184
0.994531
0.909577
0.983097
0.958184
0.994531
0.909577
0.983097
0.958184
0.994531
0.909577
0.983097
0.958184
0.994531
0.909577
0.983097
0.824389
0.955017
0.930871
0.95509
0.933096
0.970619
0.933134
0.762259
0.942189
0.762259
0.942189
0.762259
0.942189
0.762259
0.942189
0.921597
0.897363
0.689879
0.689879
0.689879
0.689879
0.988465
0.988465
0.861241
0.861241
0.861241
0.861241
0.988465
0.988465
0.980212
0.980433
0.980433
0.992184
0.992184
0.857008
0.87553
0.941549
0.86935
0.946109
0.864129
0.946109
0.864129
0.946109
0.864129
0.946109
0.864129
0.815423
0.638668
0.815423
0.638668
0.815423
0.638668
0.815423
0.638668
0.924858
0.924858
0.924858
0.924858
0.820404
0.827856
0.820404
0.827856
0.820404
0.827856
0.820404
0.827856
0.869282
0.932631
0.931222
0.931222
0.931222
0.931222
0.742759
0.742759
0.8939
0.8939
0.742759
0.742759
0.8939
0.8939
0.865127
0.754067
0.845563
0.7723
0.888784
0.990473
0.654759
0.957879
0.957879
0.957879
0.957879
0.677322
0.677322
0.677322
0.677322
0.910195
0.910195
0.910195
0.910195
0.702948
0.97903
0.935895
0.917525
0.7413
0.976461
0.676577
0.976461
0.676577
0.976461
0.676577
0.976461
0.676577
0.923398
0.923398
0.923398
0.923398
0.934979
0.825777
0.934979
0.825777
0.934979
0.825777
0.934979
0.825777
0.892683
0.792438
0.694912
0.881149
0.792438
0.694912
0.881149
0.778453
0.715472
0.970125
0.778453
0.715161
0.970125
0.938067
0.970308
0.938067
0.970308
0.938067
0.970308
0.938067
0.970308
0.940821
0.769104
0.94851
0.97605
0.962419
0.71716
0.813131
0.807321
0.933387
0.933387
0.933387
0.933387
0.847955
0.789368
0.993209
0.985569
0.794522
0.794522
0.794522
0.794522
0.949342
0.916829
0.754936
0.672367
0.785635
0.960307
0.785635
0.960307
0.785635
0.960307
0.785635
0.960307
0.89171
0.89171
0.89171
0.89171
0.983299
0.983299
0.983299
0.983299
0.968412
0.911379
0.913955
0.83434
0.8694
0.924861
0.852059
0.924861
0.852059
0.924861
0.852059
0.924861
0.852059
0.992144
0.936589
0.992144
0.936589
0.992144
0.936589
0.992144
0.936589
0.93175
0.861929
0.996863
0.819584
0.983588
0.998662
0.998662
0.998662
0.998662
0.714763
0.768634
0.861208
0.833943
0.91428
0.746174
0.915377
0.915377
0.915377
0.915377
0.873216
0.945102
0.873216
0.945102
0.836229
0.976911
0.8364
0.979844
0.928329
0.928329
0.928329
0.928329