/*--------------------------------*- C++ -*----------------------------------*\
| =========                 |                                                 |
| \\      /  F ield         | OpenFOAM: The Open Source CFD Toolbox           |
|  \\    /   O peration     | Version:  2106                                  |
|   \\  /    A nd           | Website:  www.openfoam.com                      |
|    \\/     M anipulation  |                                                 |
\*---------------------------------------------------------------------------*/
FoamFile
{
    version     2.0;
    format      ascii;
    arch        "LSB;label=32;scalar=64";
    class       volScalarField;
    location    "constant";
    object      faceWeight;
}
// * * * * * * * * * * * * * * * * * * * * * * * * * * * * * * * * * * * * * //

dimensions      [0 0 0 0 0 0 0];

internalField   nonuniform List<scalar> 
2658
(
0.405009
0.44086
0.393137
0.393137
0.393137
0.393137
0.417739
0.417739
0.417739
0.417739
0.417739
0.417739
0.417739
0.417739
0.439538
0.430229
0.430229
0.427766
0.430412
0.358028
0.358028
0.358028
0.358028
0.431486
0.384392
0.44698
0.427915
0.482423
0.482423
0.482423
0.482423
0.412622
0.412622
0.411096
0.411096
0.423707
0.433834
0.433834
0.433834
0.433834
0.409648
0.409648
0.409648
0.409648
0.461673
0.363596
0.348201
0.363991
0.363991
0.363991
0.363991
0.400413
0.396065
0.385889
0.395732
0.437881
0.437881
0.437881
0.437881
0.370777
0.370777
0.370777
0.370777
0.443052
0.443052
0.443052
0.443052
0.393137
0.393137
0.393137
0.393137
0.465633
0.415769
0.465633
0.465633
0.415769
0.415769
0.465633
0.415769
0.389693
0.471842
0.471842
0.471842
0.471842
0.471842
0.471842
0.471842
0.471842
0.413121
0.413121
0.410741
0.404208
0.381808
0.443349
0.381808
0.443349
0.381808
0.443349
0.381808
0.443349
0.425871
0.4088
0.467424
0.393896
0.393896
0.393896
0.393896
0.40762
0.40762
0.40762
0.40762
0.416103
0.441494
0.445962
0.393567
0.439596
0.44539
0.44785
0.445503
0.4401
0.452854
0.425139
0.388737
0.379672
0.460198
0.460198
0.460198
0.460198
0.431046
0.431046
0.431046
0.431046
0.442486
0.442486
0.442486
0.442486
0.42048
0.42048
0.42048
0.42048
0.393824
0.406202
0.406202
0.406202
0.406202
0.418947
0.418947
0.418947
0.418947
0.435882
0.435882
0.435882
0.435882
0.378369
0.431467
0.444939
0.444939
0.444939
0.444939
0.413228
0.413228
0.413431
0.413495
0.387088
0.393824
0.488189
0.442555
0.433812
0.425822
0.405816
0.407084
0.409076
0.410524
0.429351
0.488145
0.488145
0.488145
0.488145
0.387266
0.387266
0.338053
0.338053
0.387266
0.387266
0.338053
0.338053
0.473709
0.450702
0.43228
0.457583
0.413121
0.413121
0.410741
0.404208
0.459677
0.484555
0.413486
0.470327
0.470327
0.470275
0.470327
0.446416
0.446416
0.446416
0.446416
0.436049
0.455354
0.455354
0.455354
0.455354
0.472706
0.472706
0.472706
0.472706
0.390048
0.390048
0.390048
0.390048
0.44698
0.495116
0.371958
0.414591
0.370399
0.455764
0.41762
0.364279
0.426476
0.384066
0.422458
0.422458
0.422458
0.422458
0.393896
0.393896
0.393896
0.393896
0.398629
0.443562
0.443562
0.443562
0.443562
0.434566
0.434566
0.434566
0.434566
0.421739
0.388737
0.379672
0.425645
0.425645
0.425645
0.425645
0.436049
0.439003
0.471754
0.471754
0.471754
0.471754
0.399422
0.401861
0.401861
0.401861
0.401861
0.45512
0.45512
0.45512
0.45512
0.401861
0.401861
0.401861
0.401861
0.444607
0.444607
0.444607
0.444607
0.404123
0.469936
0.469936
0.469936
0.469936
0.431046
0.431046
0.431046
0.431046
0.416103
0.429448
0.429448
0.429448
0.429448
0.429982
0.406188
0.432947
0.422636
0.404828
0.40418
0.443562
0.443562
0.443562
0.443562
0.412835
0.420186
0.41055
0.41055
0.406793
0.399977
0.435965
0.435965
0.455332
0.455332
0.431519
0.431519
0.431519
0.431519
0.493174
0.538352
0.538352
0.538352
0.538352
0.440107
0.440107
0.440107
0.440107
0.421739
0.399364
0.399364
0.399364
0.399364
0.431299
0.431299
0.431299
0.431299
0.443052
0.443052
0.443052
0.443052
0.413486
0.451959
0.451959
0.451959
0.451959
0.457306
0.457306
0.457306
0.457306
0.421664
0.413633
0.375943
0.368022
0.470327
0.470327
0.470275
0.470327
0.414142
0.430274
0.43601
0.43601
0.43601
0.43601
0.390307
0.390307
0.390307
0.390307
0.485733
0.485733
0.485669
0.485733
0.483653
0.483653
0.483653
0.483653
0.449677
0.416411
0.416411
0.416411
0.416411
0.460218
0.46289
0.433752
0.433752
0.433752
0.433752
0.41034
0.41034
0.41034
0.41034
0.460869
0.442389
0.460869
0.442389
0.460869
0.442389
0.460869
0.442389
0.37841
0.37841
0.37841
0.37841
0.438808
0.438808
0.438808
0.438808
0.456073
0.456073
0.456073
0.456073
0.436147
0.436147
0.436147
0.436147
0.414434
0.423615
0.452899
0.414434
0.423615
0.414434
0.437718
0.414434
0.439209
0.439209
0.439209
0.439209
0.468473
0.468473
0.468473
0.468473
0.451349
0.451349
0.451349
0.451349
0.446646
0.403423
0.476835
0.476835
0.451693
0.451693
0.476835
0.451693
0.476835
0.451693
0.463967
0.440181
0.440181
0.440181
0.440181
0.439003
0.457147
0.457147
0.457147
0.457147
0.406073
0.406073
0.406073
0.406073
0.424963
0.424963
0.424963
0.424963
0.434135
0.434135
0.434135
0.434135
0.418947
0.418947
0.418947
0.418947
0.479157
0.462349
0.479157
0.462349
0.479157
0.462349
0.479157
0.462349
0.423707
0.429408
0.398685
0.433775
0.431299
0.431299
0.431299
0.431299
0.39315
0.390982
0.387198
0.384004
0.431519
0.431519
0.431519
0.431519
0.439721
0.439721
0.440277
0.439721
0.417946
0.405934
0.439785
0.439785
0.439785
0.439785
0.426781
0.426781
0.426781
0.426781
0.442337
0.435369
0.43601
0.43601
0.43601
0.43601
0.457714
0.457714
0.457778
0.457711
0.36817
0.36496
0.36817
0.36496
0.36817
0.36817
0.36496
0.36496
0.43789
0.43789
0.43789
0.43789
0.430441
0.430441
0.430441
0.430441
0.433812
0.433834
0.433834
0.433834
0.433834
0.431073
0.448387
0.448387
0.448387
0.448387
0.418815
0.367577
0.409391
0.355379
0.368422
0.368422
0.368422
0.368422
0.393181
0.393181
0.393181
0.393181
0.389693
0.405862
0.472569
0.472569
0.472569
0.472569
0.46135
0.424678
0.452392
0.452392
0.452392
0.452392
0.378656
0.404973
0.404973
0.405126
0.405307
0.445962
0.439596
0.445503
0.4401
0.425814
0.427244
0.42687
0.427028
0.426771
0.460858
0.414302
0.414302
0.414302
0.414302
0.455846
0.455846
0.455846
0.455846
0.441002
0.499988
0.484903
0.439107
0.484903
0.439107
0.484903
0.484903
0.439107
0.439107
0.48222
0.38738
0.38738
0.38738
0.38738
0.510144
0.510144
0.510144
0.510144
0.489009
0.455354
0.455354
0.455354
0.455354
0.463854
0.465111
0.463854
0.477371
0.428929
0.428932
0.430059
0.426091
0.416296
0.464339
0.464339
0.464339
0.464339
0.430229
0.430229
0.427766
0.430412
0.442587
0.442587
0.437488
0.442587
0.437488
0.442587
0.437488
0.437488
0.436636
0.452993
0.436636
0.436636
0.452993
0.452993
0.436636
0.452993
0.476956
0.476956
0.476956
0.476956
0.405009
0.444691
0.444693
0.460185
0.444911
0.432493
0.411409
0.411409
0.411409
0.411409
0.470053
0.436095
0.43608
0.436081
0.437103
0.436155
0.447802
0.447802
0.450354
0.447802
0.368422
0.368422
0.368422
0.368422
0.393181
0.393181
0.393181
0.393181
0.429188
0.429188
0.42818
0.42818
0.42048
0.42048
0.42048
0.42048
0.441268
0.475261
0.488692
0.475261
0.488692
0.475261
0.488692
0.475261
0.488692
0.436241
0.485243
0.472706
0.472706
0.472706
0.472706
0.429408
0.442337
0.403984
0.406794
0.407308
0.415701
0.457742
0.457742
0.457742
0.457742
0.409498
0.447989
0.447989
0.447989
0.447989
0.408802
0.408802
0.408802
0.408802
0.461807
0.461807
0.464045
0.454213
0.426894
0.426894
0.426894
0.426894
0.427839
0.427839
0.427839
0.427839
0.455382
0.455382
0.455382
0.455382
0.442389
0.442389
0.442389
0.442389
0.416297
0.418736
0.416297
0.418736
0.416297
0.418736
0.416297
0.418736
0.435856
0.435856
0.435856
0.435856
0.436636
0.436636
0.436636
0.436636
0.384031
0.441147
0.451349
0.451349
0.451349
0.451349
0.381082
0.381082
0.381082
0.381082
0.49139
0.49139
0.49139
0.49139
0.415667
0.412661
0.415667
0.412661
0.415667
0.412661
0.415667
0.412661
0.410993
0.481693
0.458641
0.458641
0.458641
0.458641
0.491762
0.463768
0.491762
0.463768
0.491762
0.463768
0.491762
0.463768
0.405922
0.406043
0.419657
0.48946
0.419657
0.48946
0.419657
0.48946
0.419657
0.48946
0.416163
0.364032
0.444997
0.444997
0.444997
0.444997
0.428643
0.428735
0.433252
0.432595
0.451874
0.451874
0.449314
0.449314
0.421934
0.421934
0.421934
0.421934
0.405922
0.406043
0.47886
0.47886
0.47886
0.47886
0.405483
0.405483
0.405483
0.405483
0.442105
0.450029
0.401671
0.47906
0.405304
0.469153
0.393943
0.47906
0.374794
0.374794
0.374794
0.374794
0.367821
0.367821
0.367761
0.367821
0.439003
0.439003
0.439003
0.439003
0.40918
0.40921
0.397301
0.409207
0.476099
0.484555
0.488889
0.488889
0.488871
0.488889
0.387329
0.396324
0.384031
0.461034
0.392751
0.461109
0.392751
0.440989
0.422196
0.442587
0.420659
0.424607
0.424607
0.424607
0.424607
0.459169
0.459169
0.459169
0.459169
0.431486
0.405565
0.468999
0.47934
0.455688
0.455688
0.455688
0.46234
0.46234
0.455688
0.457995
0.457995
0.384392
0.399422
0.432493
0.464476
0.464476
0.464476
0.464476
0.403984
0.406794
0.407308
0.415701
0.378942
0.414434
0.414434
0.414434
0.414434
0.443811
0.432733
0.426872
0.422308
0.430515
0.430515
0.430515
0.430515
0.430515
0.430515
0.430515
0.430515
0.40563
0.40563
0.40563
0.40563
0.46218
0.483629
0.404828
0.40418
0.407752
0.407752
0.407752
0.407752
0.368022
0.457746
0.441806
0.461321
0.459169
0.459169
0.459169
0.459169
0.435994
0.375943
0.381082
0.381082
0.381082
0.381082
0.475402
0.482098
0.417885
0.41998
0.41998
0.41998
0.41998
0.439858
0.468211
0.477017
0.431499
0.431499
0.431499
0.431499
0.431702
0.431702
0.431702
0.431702
0.43586
0.399052
0.444607
0.444607
0.444607
0.444607
0.448429
0.448429
0.448429
0.448429
0.476099
0.484555
0.428643
0.428735
0.433252
0.432595
0.438437
0.426894
0.426894
0.426894
0.426894
0.442486
0.442486
0.442486
0.442486
0.418233
0.396655
0.396655
0.396655
0.396655
0.419145
0.425942
0.419144
0.435594
0.431467
0.444799
0.444799
0.444799
0.444799
0.405862
0.445099
0.445099
0.445099
0.445099
0.496934
0.490001
0.490001
0.440591
0.456088
0.448798
0.456088
0.391033
0.470075
0.439571
0.481777
0.446284
0.446284
0.446284
0.446284
0.417946
0.409273
0.409273
0.419358
0.419358
0.409273
0.419358
0.409273
0.419358
0.470707
0.470707
0.470707
0.470707
0.403839
0.416163
0.364032
0.496965
0.465628
0.465628
0.465628
0.465628
0.479744
0.479744
0.479744
0.479744
0.436365
0.462889
0.390539
0.390539
0.390539
0.390539
0.43789
0.43789
0.43789
0.43789
0.444487
0.444487
0.444487
0.444487
0.436605
0.437458
0.436239
0.437345
0.37988
0.413227
0.413227
0.413227
0.413227
0.462531
0.462531
0.462531
0.462531
0.436241
0.474156
0.474156
0.474156
0.474156
0.439926
0.439926
0.462224
0.439926
0.462224
0.462224
0.439926
0.462224
0.479132
0.479132
0.479132
0.479132
0.378656
0.453936
0.453936
0.453936
0.453936
0.362823
0.420218
0.420218
0.420218
0.420218
0.358028
0.358028
0.358028
0.358028
0.429834
0.429834
0.429834
0.429834
0.458654
0.387088
0.454673
0.454673
0.454673
0.454673
0.421664
0.413633
0.433159
0.420895
0.42356
0.42356
0.42356
0.42356
0.40585
0.40585
0.40585
0.40585
0.457941
0.457941
0.457265
0.456328
0.364725
0.364725
0.364725
0.364725
0.410795
0.410795
0.410791
0.410791
0.455846
0.455846
0.455846
0.455846
0.465845
0.484555
0.444472
0.444472
0.444472
0.444472
0.438117
0.438117
0.438117
0.438117
0.431073
0.452451
0.452451
0.452451
0.452451
0.45537
0.469005
0.469005
0.469005
0.469005
0.452104
0.447442
0.452993
0.447442
0.447442
0.452993
0.452993
0.447442
0.452993
0.429403
0.429403
0.429403
0.429403
0.464879
0.464879
0.464879
0.464879
0.462823
0.462823
0.462823
0.462823
0.439538
0.459865
0.423615
0.495042
0.450889
0.459865
0.423615
0.478272
0.437718
0.495334
0.495334
0.495334
0.495334
0.503907
0.503907
0.503907
0.503907
0.471545
0.471545
0.471545
0.471545
0.363072
0.363072
0.363072
0.363072
0.417431
0.473686
0.417431
0.473686
0.417431
0.473686
0.417431
0.473686
0.435854
0.479555
0.435852
0.479555
0.426883
0.471545
0.435849
0.479555
0.489924
0.489924
0.489924
0.489924
0.429523
0.429523
0.429523
0.429523
0.473592
0.435882
0.435882
0.435882
0.435882
0.363991
0.363991
0.363991
0.363991
0.43224
0.440108
0.419078
0.400413
0.385889
0.396065
0.395732
0.367821
0.367821
0.367761
0.367821
0.437904
0.437904
0.437904
0.437904
0.456841
0.476842
0.428454
0.415206
0.415206
0.415206
0.415206
0.430441
0.430441
0.430441
0.430441
0.449959
0.453352
0.408802
0.408802
0.408802
0.408802
0.444997
0.398799
0.444997
0.444997
0.398799
0.398799
0.444997
0.398799
0.49552
0.49552
0.487497
0.49177
0.448524
0.481181
0.481181
0.481181
0.481181
0.435263
0.435263
0.435263
0.435263
0.440113
0.440113
0.440113
0.440113
0.475552
0.443275
0.372174
0.372174
0.372174
0.372174
0.4433
0.477477
0.477477
0.477477
0.477477
0.446239
0.438412
0.431785
0.429188
0.429188
0.427363
0.427198
0.389242
0.389242
0.389242
0.389242
0.428552
0.431439
0.434135
0.434135
0.434135
0.434135
0.414601
0.497752
0.462644
0.462644
0.462644
0.462644
0.433947
0.433947
0.433947
0.433947
0.486019
0.459643
0.428929
0.428932
0.430059
0.426091
0.466132
0.463241
0.447379
0.447379
0.447379
0.447379
0.514123
0.465463
0.465548
0.461472
0.477691
0.462681
0.462681
0.462681
0.462681
0.447611
0.399052
0.458364
0.458364
0.458417
0.458364
0.469315
0.370777
0.370777
0.469315
0.469315
0.370777
0.469315
0.370777
0.445201
0.439721
0.439721
0.440277
0.439721
0.440591
0.424678
0.411355
0.411355
0.411355
0.411355
0.473412
0.461703
0.461703
0.461703
0.461703
0.428454
0.452875
0.452875
0.452875
0.452875
0.492438
0.492438
0.474894
0.48476
0.475814
0.475814
0.475814
0.475814
0.422872
0.422872
0.422872
0.422872
0.438879
0.401696
0.441985
0.458504
0.458504
0.458504
0.458504
0.465919
0.431394
0.456676
0.412457
0.412457
0.412457
0.412457
0.39315
0.390982
0.387198
0.384004
0.343087
0.343087
0.343087
0.343087
0.451877
0.451877
0.451877
0.451877
0.476842
0.465919
0.445448
0.444014
0.412661
0.444014
0.412661
0.444014
0.412661
0.444014
0.412661
0.420253
0.420253
0.426836
0.428501
0.424607
0.424607
0.424607
0.424607
0.453936
0.453936
0.453936
0.453936
0.454651
0.415769
0.45001
0.452258
0.415769
0.415769
0.45001
0.415769
0.428717
0.428717
0.428717
0.428717
0.484614
0.484614
0.484614
0.484614
0.479125
0.479125
0.479277
0.479277
0.392154
0.406188
0.455496
0.42034
0.42034
0.471951
0.45882
0.43334
0.43334
0.43334
0.43334
0.435277
0.435277
0.435288
0.435288
0.440774
0.440774
0.440774
0.440774
0.446091
0.446091
0.446091
0.446091
0.44785
0.473355
0.450889
0.446362
0.453399
0.448087
0.469448
0.427839
0.427839
0.427839
0.427839
0.451877
0.451877
0.451877
0.451877
0.426445
0.452854
0.433231
0.433231
0.433231
0.433231
0.434068
0.434068
0.434068
0.434068
0.465336
0.482344
0.465336
0.482344
0.465336
0.482344
0.465336
0.482344
0.403423
0.446396
0.467254
0.468629
0.469436
0.407432
0.407432
0.407432
0.407432
0.480206
0.439107
0.439107
0.439107
0.439107
0.41732
0.41732
0.426127
0.415462
0.441025
0.415667
0.441025
0.415667
0.415667
0.495969
0.441025
0.415667
0.455496
0.406355
0.408179
0.426781
0.426781
0.426781
0.426781
0.479136
0.406073
0.406073
0.406073
0.406073
0.464504
0.464504
0.414302
0.414302
0.464504
0.414302
0.464504
0.414302
0.433179
0.433179
0.433179
0.433179
0.42993
0.42993
0.42993
0.42993
0.387329
0.482955
0.482955
0.482955
0.482955
0.440756
0.440849
0.439595
0.433526
0.459049
0.421345
0.414029
0.39953
0.462644
0.462644
0.462644
0.462644
0.452307
0.452307
0.452307
0.452307
0.38738
0.38738
0.38738
0.38738
0.451532
0.441037
0.492858
0.427747
0.427747
0.427747
0.427747
0.434654
0.434654
0.458519
0.395666
0.39587
0.395936
0.498629
0.476324
0.498629
0.476324
0.498629
0.476324
0.498629
0.476324
0.451871
0.395666
0.39587
0.395936
0.412457
0.412457
0.412457
0.412457
0.472953
0.408242
0.408242
0.408242
0.408242
0.44392
0.44392
0.44392
0.44392
0.479553
0.479553
0.424963
0.424963
0.424963
0.424963
0.479553
0.479553
0.485243
0.479109
0.479109
0.48008
0.479981
0.419145
0.419144
0.425942
0.435594
0.461499
0.461499
0.465055
0.463556
0.463556
0.463556
0.463556
0.458364
0.458364
0.458417
0.458364
0.389748
0.389748
0.389748
0.389748
0.431702
0.431702
0.431702
0.431702
0.450671
0.450671
0.450671
0.450671
0.405565
0.451871
0.433179
0.433179
0.433179
0.433179
0.40762
0.40762
0.426197
0.426197
0.40762
0.40762
0.426197
0.426197
0.429896
0.435761
0.470559
0.395682
0.374794
0.374794
0.374794
0.374794
0.403812
0.403812
0.403812
0.403812
0.443349
0.443349
0.443349
0.443349
0.494702
0.425716
0.403547
0.403547
0.403547
0.403547
0.448652
0.448652
0.448652
0.448652
0.437904
0.437904
0.437904
0.437904
0.427141
0.409999
0.409999
0.41707
0.416964
0.465454
0.465454
0.465454
0.465454
0.462482
0.434742
0.397623
0.39818
0.401131
0.401242
0.453778
0.508584
0.508584
0.508584
0.508584
0.490425
0.417643
0.418815
0.446695
0.387266
0.387266
0.387266
0.387266
0.441143
0.455764
0.435285
0.466132
0.429448
0.429448
0.429448
0.429448
0.487006
0.430179
0.402045
0.481181
0.481181
0.481181
0.481181
0.433231
0.433231
0.433231
0.433231
0.434068
0.434068
0.434068
0.434068
0.435369
0.476818
0.454845
0.433372
0.433372
0.433372
0.433372
0.464449
0.464449
0.464449
0.464449
0.411355
0.411355
0.411355
0.411355
0.499215
0.495863
0.476248
0.476248
0.476248
0.476248
0.416829
0.416829
0.371958
0.370399
0.364279
0.384066
0.52209
0.52209
0.52209
0.52209
0.457941
0.457941
0.457265
0.456328
0.480482
0.480482
0.480482
0.480482
0.440774
0.440774
0.440774
0.440774
0.456659
0.456659
0.456659
0.456659
0.381808
0.381808
0.381808
0.381808
0.483723
0.483723
0.483723
0.483723
0.448495
0.448495
0.448495
0.448495
0.43224
0.440108
0.379546
0.445099
0.445099
0.445099
0.445099
0.473188
0.473188
0.473188
0.473188
0.442587
0.442587
0.442587
0.442587
0.50142
0.50142
0.50142
0.50142
0.403839
0.465996
0.426476
0.461495
0.461495
0.461495
0.461495
0.506625
0.509393
0.474191
0.451829
0.451829
0.451829
0.451829
0.495712
0.448625
0.448625
0.448625
0.448625
0.447899
0.409648
0.409648
0.409648
0.409648
0.48041
0.433775
0.427244
0.42687
0.427028
0.426771
0.463843
0.45816
0.470034
0.448091
0.474918
0.446225
0.446225
0.446225
0.446225
0.446416
0.446416
0.446416
0.446416
0.409273
0.409273
0.419358
0.419358
0.409273
0.409273
0.419358
0.419358
0.424296
0.412635
0.466951
0.466951
0.466951
0.466951
0.462988
0.47707
0.393567
0.441494
0.44539
0.480225
0.480225
0.480406
0.480635
0.42034
0.42034
0.471951
0.442615
0.414601
0.408179
0.430684
0.44083
0.457714
0.44083
0.440803
0.457778
0.457714
0.440851
0.457711
0.45001
0.454339
0.45001
0.454651
0.454339
0.469591
0.452258
0.457193
0.398837
0.398837
0.398837
0.398837
0.400735
0.449923
0.414591
0.456676
0.41762
0.435263
0.435263
0.435263
0.435263
0.469653
0.501704
0.428031
0.428031
0.428031
0.428031
0.446892
0.418736
0.418736
0.418736
0.418736
0.489386
0.489386
0.474894
0.479431
0.413228
0.413228
0.413431
0.413495
0.427915
0.441147
0.476868
0.416411
0.476868
0.416411
0.416411
0.476868
0.476868
0.416411
0.435014
0.456556
0.435004
0.456558
0.435008
0.456555
0.465463
0.465548
0.391033
0.425814
0.429896
0.435761
0.470358
0.470358
0.488249
0.488249
0.47036
0.488249
0.470463
0.488249
0.338053
0.338053
0.338053
0.338053
0.479702
0.471008
0.471008
0.471008
0.471008
0.471008
0.471008
0.471008
0.471008
0.470012
0.415122
0.470012
0.415122
0.470012
0.415122
0.470012
0.415122
0.417431
0.417431
0.417431
0.417431
0.487299
0.487299
0.459531
0.459531
0.487299
0.459531
0.487299
0.459531
0.416297
0.416297
0.416297
0.416297
0.441138
0.441138
0.441143
0.441143
0.426445
0.468723
0.432312
0.432312
0.432312
0.432312
0.421412
0.442062
0.421412
0.421412
0.442062
0.442062
0.421412
0.442062
0.412622
0.412622
0.411096
0.411096
0.441002
0.407432
0.407432
0.407432
0.407432
0.442749
0.442749
0.442749
0.442749
0.410197
0.433787
0.440114
0.439465
0.378994
0.498034
0.443603
0.421934
0.421934
0.421934
0.421934
0.435392
0.435392
0.435392
0.435392
0.432312
0.432312
0.432312
0.432312
0.441611
0.46289
0.420253
0.420253
0.426836
0.428501
0.41732
0.41732
0.426127
0.415462
0.348201
0.431499
0.431499
0.431499
0.431499
0.396655
0.396655
0.396655
0.396655
0.419078
0.431785
0.362823
0.472953
0.451532
0.454845
0.417993
0.418033
0.428914
0.428732
0.390307
0.390307
0.390307
0.390307
0.486272
0.486272
0.486272
0.486272
0.443071
0.443071
0.443071
0.443071
0.403547
0.403547
0.403547
0.403547
0.374685
0.374685
0.429169
0.452307
0.452307
0.452307
0.452307
0.418233
0.466817
0.479643
0.479643
0.429523
0.429523
0.429523
0.429523
0.479643
0.479643
0.372174
0.372174
0.372174
0.372174
0.45006
0.449677
0.460574
0.460574
0.460574
0.460574
0.460574
0.460574
0.460574
0.460574
0.462714
0.441143
0.474944
0.427319
0.415206
0.415206
0.415206
0.415206
0.475773
0.475773
0.475773
0.475773
0.343087
0.343087
0.343087
0.343087
0.398685
0.422872
0.422872
0.422872
0.422872
0.449164
0.449164
0.449164
0.449164
0.436605
0.437458
0.436239
0.437345
0.428552
0.431439
0.436549
0.436549
0.436549
0.436549
0.407752
0.407752
0.407752
0.407752
0.457587
0.414142
0.445448
0.37841
0.37841
0.37841
0.37841
0.46177
0.46177
0.46177
0.46177
0.442555
0.407084
0.432713
0.494196
0.363596
0.469591
0.454339
0.457193
0.454339
0.405416
0.46073
0.46073
0.46073
0.46073
0.465921
0.442105
0.401671
0.405304
0.393943
0.409498
0.476868
0.476868
0.476868
0.476868
0.456073
0.456073
0.456073
0.456073
0.436147
0.436147
0.436147
0.436147
0.424169
0.390048
0.390048
0.467367
0.467367
0.390048
0.467367
0.390048
0.467367
0.409999
0.409999
0.41707
0.416964
0.458654
0.421412
0.421412
0.421412
0.421412
0.481921
0.434566
0.434566
0.434566
0.434566
0.469448
0.497463
0.497463
0.497444
0.497463
0.497444
0.497463
0.497444
0.497444
0.435935
0.435935
0.435935
0.435935
0.40563
0.40563
0.40563
0.40563
0.401696
0.434592
0.412023
0.415841
0.444347
0.424805
0.4088
0.495712
0.424805
0.467192
0.46841
0.46841
0.4642
0.4642
0.424175
0.424175
0.424175
0.424175
0.424157
0.424157
0.424157
0.424157
0.450384
0.41034
0.41034
0.41034
0.41034
0.404973
0.467612
0.404973
0.467612
0.468385
0.405126
0.469463
0.405307
0.442852
0.442852
0.442852
0.442852
0.389685
0.389685
0.389685
0.389685
0.389685
0.389685
0.389685
0.389685
0.442199
0.420718
0.392751
0.392751
0.422196
0.420659
0.49015
0.46202
0.46202
0.46202
0.46202
0.448868
0.473744
0.461034
0.452257
0.461109
0.452232
0.429901
0.408223
0.405816
0.429321
0.429351
0.406202
0.406202
0.406202
0.406202
0.409076
0.472822
0.436829
0.472822
0.436829
0.472822
0.436829
0.472822
0.436829
0.463768
0.463768
0.463768
0.463768
0.36496
0.36496
0.36817
0.36817
0.36496
0.36496
0.36817
0.36817
0.439926
0.465336
0.439926
0.465336
0.439926
0.465336
0.439926
0.465336
0.410524
0.40585
0.40585
0.40585
0.40585
0.410169
0.44802
0.410586
0.446303
0.410042
0.448068
0.410241
0.446466
0.413227
0.413227
0.413227
0.413227
0.435965
0.4529
0.435965
0.4529
0.473837
0.455332
0.473695
0.455332
0.363072
0.363072
0.363072
0.363072
0.480753
0.41963
0.392154
0.408242
0.408242
0.408242
0.408242
0.458641
0.458641
0.458641
0.458641
0.443603
0.364725
0.364725
0.364725
0.364725
0.434183
0.499215
0.465069
0.427047
0.427047
0.427047
0.427047
0.481977
0.429374
0.442615
0.436829
0.436829
0.436829
0.436829
0.378942
0.476821
0.476821
0.473821
0.473673
0.395682
0.428717
0.428717
0.428717
0.428717
0.414722
0.414722
0.414722
0.414722
0.447519
0.447519
0.447519
0.447519
0.481416
0.481416
0.481416
0.481416
0.432713
0.37988
0.458325
0.438987
0.444672
0.445927
0.412635
0.430179
0.391605
0.470012
0.391605
0.470012
0.391605
0.470012
0.391605
0.470012
0.463203
0.44083
0.463203
0.44083
0.46322
0.440803
0.463189
0.440851
0.502781
0.502781
0.503602
0.502781
0.431317
0.398629
0.462153
0.462153
0.462308
0.462153
0.465055
0.444807
0.435935
0.435935
0.435935
0.435935
0.435854
0.435852
0.397301
0.435849
0.424296
0.390539
0.390539
0.390539
0.390539
0.40918
0.40921
0.425716
0.409207
0.417643
0.465536
0.389242
0.389242
0.389242
0.389242
0.452911
0.452911
0.452911
0.452911
0.445555
0.450873
0.450873
0.445555
0.450873
0.445555
0.450873
0.445555
0.445555
0.460574
0.505376
0.445555
0.460574
0.460574
0.494624
0.494624
0.389748
0.389748
0.389748
0.389748
0.399364
0.399364
0.399364
0.399364
0.472957
0.472957
0.472877
0.472957
0.463419
0.482829
0.410993
0.413247
0.433787
0.439465
0.423049
0.452932
0.457863
0.452958
0.457914
0.41998
0.479132
0.41998
0.479132
0.41998
0.479132
0.41998
0.479132
0.432001
0.432001
0.427363
0.427198
0.437089
0.435806
0.438143
0.429321
0.46135
0.445688
0.391605
0.391605
0.415122
0.415122
0.391605
0.391605
0.415122
0.415122
0.437429
0.402045
0.444807
0.397564
0.458519
0.467612
0.41055
0.467612
0.41055
0.406793
0.453395
0.469463
0.399977
0.424169
0.446225
0.446225
0.446225
0.446225
0.457617
0.452152
0.428668
0.405416
0.378369
0.439703
0.456088
0.409578
0.416149
0.405934
0.434742
0.412835
0.420186
0.412023
0.400735
0.437429
0.423049
0.429901
0.43384
0.454348
0.42284
0.403812
0.403812
0.403812
0.403812
0.378994
0.410197
0.42284
0.367577
0.355379
0.414408
0.445201
0.420151
0.42264
0.396324
0.400677
)
;

boundaryField
{
    frontAndBack
    {
        type            calculated;
        value           uniform 1;
    }
    bottom
    {
        type            calculated;
        value           uniform 1;
    }
    right
    {
        type            calculated;
        value           uniform 1;
    }
    top
    {
        type            calculated;
        value           uniform 1;
    }
    left
    {
        type            calculated;
        value           uniform 1;
    }
}


// ************************************************************************* //
