/*--------------------------------*- C++ -*----------------------------------*\
| =========                 |                                                 |
| \\      /  F ield         | OpenFOAM: The Open Source CFD Toolbox           |
|  \\    /   O peration     | Version:  v2106                                 |
|   \\  /    A nd           | Website:  www.openfoam.com                      |
|    \\/     M anipulation  |                                                 |
\*---------------------------------------------------------------------------*/
FoamFile
{
    version     2.0;
    format      ascii;
    arch        "LSB;label=32;scalar=64";
    class       surfaceScalarField;
    location    "constant";
    object      face_skewness;
}
// * * * * * * * * * * * * * * * * * * * * * * * * * * * * * * * * * * * * * //

dimensions      [0 0 0 0 0 0 0];

internalField   nonuniform List<scalar> 
3923
(
0.104135
0.104328
0.0350149
0.085785
0.0982137
0.0611143
0.0123693
0.136603
0.0611143
0.0123693
0.136603
0.0611143
0.0123693
0.136603
0.0611143
0.0123693
0.136603
0.0421248
0.134659
0.19441
0.0421248
0.134659
0.19441
0.0421248
0.134659
0.19441
0.0421248
0.134659
0.19441
0.369496
0.301604
0.369496
0.301604
0.369496
0.301604
0.369496
0.301604
0.0471431
0.0512181
0.141351
0.0263232
0.170806
0.174052
0.0263232
0.170806
0.174052
0.0303476
0.157799
0.20193
0.0316042
0.158144
0.19154
0.0533877
0.0617457
0.0852125
0.0533877
0.0617457
0.0852125
0.0533877
0.0617457
0.0852125
0.0533877
0.0617457
0.0852125
0.0377143
0.0974376
0.00403695
0.0184842
0.064449
0.0454944
0.0179268
0.0128147
0.135802
0.241444
0.191833
0.00398134
0.0172879
0.0284791
0.00398134
0.0172879
0.0284791
0.00398134
0.0172879
0.0284791
0.00398134
0.0172879
0.0284791
0.142592
0.123534
0.0277129
0.142592
0.123534
0.0277129
0.142592
0.123534
0.0205451
0.142592
0.123534
0.0205451
0.00374214
0.00487571
0.0303661
0.023547
0.025757
0.0303661
0.023547
0.025757
0.0303661
0.023547
0.025757
0.0303661
0.023547
0.025757
0.121804
0.0108161
0.121804
0.0108161
0.121804
0.0108161
0.121804
0.0108161
0.0266909
0.00583669
0.0204372
0.0510319
0.071481
0.198373
0.129723
0.077755
0.154013
0.0313301
0.077755
0.154013
0.0313301
0.077755
0.154013
0.0313301
0.077755
0.154013
0.0313301
0.103525
0.0240449
0.103525
0.028252
0.103525
0.0270856
0.103525
0.0265536
0.118679
0.106632
0.0985033
0.118679
0.106632
0.0985033
0.118679
0.106632
0.0985033
0.118679
0.106632
0.0985033
0.102989
0.078229
0.103123
0.102989
0.078229
0.103123
0.102989
0.078229
0.103123
0.102989
0.078229
0.103123
0.204221
0.144438
0.0776339
0.204221
0.144438
0.0776339
0.204221
0.144438
0.0776339
0.204221
0.144438
0.0776339
0.116179
0.266815
0.116179
0.266815
0.116179
0.266815
0.116179
0.266815
0.0507335
0.119453
0.0758174
0.0785121
0.0507335
0.119453
0.0507335
0.119453
0.0758174
0.0785121
0.0758174
0.0785121
0.0507335
0.119453
0.0758174
0.0785121
0.0429918
0.0152877
0.0634239
0.0548466
0.161166
0.0625126
0.0548466
0.161166
0.0625126
0.0548466
0.161166
0.0625126
0.0548466
0.161166
0.0625126
0.197306
0.173916
0.197306
0.173916
0.197306
0.173916
0.197306
0.173916
0.0303262
0.115621
0.068933
0.0303262
0.115621
0.0689158
0.0357388
0.117833
0.0921164
0.0419036
0.123428
0.0910455
0.0350036
0.0469573
0.0188544
0.0726842
0.0122282
0.0350036
0.0469573
0.0188544
0.0726842
0.0122282
0.0350036
0.0469573
0.0188544
0.0726842
0.0122282
0.0350036
0.0469573
0.0188544
0.0726842
0.0122282
0.136392
0.123142
0.0384518
0.130446
0.108783
0.0346224
0.164166
0.253326
0.0737429
1.26892e-05
0.0294131
0.0737429
1.26891e-05
0.0294131
0.0737429
1.26892e-05
0.0294131
0.0737429
1.26891e-05
0.0294131
0.000482568
0.000886169
0.0357593
0.000482568
0.000886169
0.0357593
0.000482568
0.000894626
0.0357593
0.000482568
0.000894626
0.0357593
0.0345069
0.102596
0.234841
0.0496278
0.104019
0.0217989
0.0603018
0.0156123
0.0646057
0.0843862
0.0110956
0.0558828
0.0212866
0.0496278
0.104019
0.020901
0.0690065
0.0828133
0.0136777
0.0604499
0.0156123
0.0522824
0.0105495
0.153599
0.128732
0.0765289
0.0103246
0.0310783
0.0957098
0.0843887
0.140418
0.0697493
0.0561785
0.143292
0.171787
0.224602
0.171787
0.224602
0.171787
0.224602
0.171787
0.224602
0.137933
0.0910297
0.140953
0.137933
0.0910297
0.140953
0.137933
0.0910297
0.140953
0.137933
0.0910297
0.140953
0.0443857
0.185297
0.135581
0.0443857
0.185297
0.135581
0.0443962
0.185297
0.135581
0.0443962
0.185297
0.135581
0.0122531
0.0532396
0.127855
0.0122531
0.0532396
0.127855
0.0122531
0.0532396
0.127855
0.0122531
0.0532396
0.127855
0.0169687
0.018508
0.103547
0.152214
0.0125331
0.103547
0.152214
0.0125331
0.103547
0.152214
0.0125331
0.103547
0.152214
0.0125331
0.139264
0.0952455
0.139264
0.0952455
0.139264
0.0952455
0.139264
0.0952455
0.0547623
0.155968
0.0547623
0.155968
0.0547623
0.155968
0.0547623
0.155968
0.0330977
0.0914658
0.114369
0.0817726
0.0268672
0.230643
0.230643
0.230643
0.230643
0.0499815
0.0983601
0.0499815
0.0983601
0.0500913
0.098362
0.0503797
0.098362
0.0066237
0.152507
0.251569
0.314152
0.32223
0.0693924
0.0416966
0.03637
0.0516769
0.057263
0.022572
0.0584608
0.0524223
0.0108843
0.127484
0.0871254
0.123898
0.00242201
0.0833052
0.0774514
0.0191032
0.0982307
0.0220589
0.0243282
0.102664
0.0684339
0.092378
0.0095634
0.092378
0.0095634
0.092378
0.0095634
0.092378
0.0095634
0.0131489
0.169761
0.141268
0.0131489
0.169761
0.141268
0.176091
0.0623061
0.176091
0.0623061
0.0131489
0.169761
0.141268
0.0131489
0.169761
0.141268
0.176091
0.0623061
0.176091
0.0623061
0.00253276
0.0112861
0.00313967
0.00876738
0.0603693
0.255809
0.00341949
0.0773861
0.133175
0.061773
0.133175
0.061773
0.133122
0.0615821
0.133159
0.0615821
0.0042421
0.160783
0.00143824
0.00628282
0.1144
0.0161922
0.0778144
0.0265887
0.027569
0.0815585
0.0893367
0.027569
0.0815585
0.0893367
0.0275678
0.081321
0.0893792
0.027569
0.0815585
0.0893367
0.0851481
0.121156
0.0970425
0.0851481
0.121156
0.0970425
0.0851481
0.121156
0.0970425
0.0851481
0.121156
0.0970425
0.146163
0.143534
0.200965
0.019415
0.0325751
0.0328269
0.019415
0.0325751
0.0328269
0.019415
0.0325751
0.0328269
0.019415
0.0325751
0.0328269
0.0827844
0.224525
0.0827844
0.224525
0.0827844
0.224525
0.0827844
0.224525
0.0789364
0.126702
0.0466453
0.0789364
0.126702
0.0466453
0.0789364
0.126702
0.0466453
0.0789364
0.126702
0.0466453
0.0844521
0.154839
0.0548464
0.119478
0.0256425
0.0909317
0.0013592
0.126401
0.0232278
0.0837826
0.0130213
0.119478
0.00413822
0.0250481
0.0802303
0.134546
0.000432686
0.0177313
0.097043
0.242326
0.242326
0.242326
0.242326
0.179522
0.125594
0.179522
0.125594
0.179522
0.125594
0.179522
0.125594
0.0855711
0.134488
0.106303
0.0652683
0.0755308
0.151843
0.0652683
0.0755308
0.151843
0.0652683
0.0755308
0.151843
0.0652683
0.0755308
0.151843
0.303401
0.0992979
0.303401
0.0992979
0.303401
0.0992979
0.303401
0.0992979
0.00907937
0.0710323
0.00291356
0.376398
0.297873
0.37425
0.265357
0.241146
0.224464
0.241146
0.224464
0.241146
0.224464
0.241146
0.224464
0.242668
0.0613581
0.0186448
0.035844
0.0347083
0.0315531
0.0555267
0.0315531
0.0555267
0.0315531
0.0554777
0.0315531
0.0555267
0.0132718
0.0356644
0.121562
0.0369977
0.0525341
0.0446904
0.0369977
0.0525341
0.0446904
0.0369977
0.0525341
0.0446904
0.0369977
0.0525341
0.0446904
0.191625
0.191625
0.191625
0.191625
0.203522
0.162432
0.203522
0.162432
0.203522
0.162432
0.203522
0.162432
0.0283583
0.0599059
0.0283583
0.0599059
0.0283583
0.0599059
0.0283583
0.0599059
0.383466
0.349233
0.0817601
0.135493
0.0817601
0.135493
0.0817601
0.135493
0.0817601
0.135493
0.0643009
0.221697
0.0643009
0.221697
0.0643009
0.221697
0.0643009
0.221697
0.193323
0.113936
0.00994953
0.0383187
0.00994953
0.0383187
0.00994953
0.0383187
0.00994953
0.0383187
0.0593667
0.00382024
0.0101989
0.0726578
0.0184415
0.075047
0.0194678
0.113018
0.000816668
0.0267459
0.0379713
0.064768
0.0263433
0.0375828
0.0654661
0.0411047
0.0411047
0.0411047
0.0411047
0.0951922
0.141841
0.094752
0.130224
0.082797
0.0100295
0.082797
0.0100295
0.0871131
0.00865506
0.0939558
0.0116828
0.201681
0.0514618
0.201681
0.0514618
0.201681
0.0636205
0.201681
0.0636205
0.0610286
0.0382253
0.0610286
0.0382253
0.0610286
0.0382253
0.0610286
0.0382253
0.157757
0.0949647
0.054382
0.054382
0.054382
0.054382
0.139071
0.139071
0.139071
0.139071
0.19094
0.06356
0.163422
0.139082
0.163422
0.139082
0.163422
0.139082
0.163422
0.139082
0.110727
0.214424
0.110727
0.214424
0.110727
0.214424
0.110727
0.214424
0.0480227
0.00361393
0.0480227
0.00361393
0.0480227
0.00361393
0.0480227
0.00361393
0.249937
0.144374
0.315438
0.0497629
0.315438
0.0497629
0.315438
0.0497629
0.315438
0.0497629
0.0419879
0.199959
0.170005
0.0419879
0.199959
0.170005
0.0419879
0.199959
0.170005
0.0419879
0.199959
0.170005
0.0185048
0.0850628
0.0698443
0.135669
0.0365642
0.0338679
0.134126
0.0216976
0.0329698
0.14176
0.0258331
0.0622265
0.0366776
0.0622265
0.0366776
0.0622265
0.0366776
0.0622265
0.0366776
0.127969
0.00306484
0.0535768
0.0754222
0.0535768
0.0754222
0.0535768
0.0754222
0.0535768
0.0754222
0.0206896
0.0348679
0.0122571
0.0206896
0.0348679
0.0122571
0.0206896
0.0348679
0.0122571
0.0206896
0.0348679
0.0122571
0.0130365
0.0536043
0.0282267
0.0130365
0.0536043
0.0282267
0.0131751
0.0537878
0.0282423
0.0130365
0.0536043
0.0282267
0.0529424
0.202753
0.121221
0.0529424
0.202753
0.121221
0.0529424
0.202753
0.121221
0.0529424
0.202753
0.121221
0.0351052
0.142222
0.0374201
0.0403229
0.0179014
0.0374201
0.0403229
0.0179014
0.0374201
0.0403229
0.0179014
0.0374201
0.0403229
0.0179014
0.180702
0.207094
0.0919583
0.0447369
0.0386175
0.0914231
0.0447369
0.0386175
0.0914231
0.0447369
0.0386175
0.0914231
0.0447369
0.0386175
0.0914231
0.22017
0.158155
0.22017
0.158155
0.22017
0.158155
0.22017
0.158155
0.0789085
0.031322
0.0567112
0.0664265
0.0299773
0.0789085
0.031322
0.0567112
0.0664265
0.0299773
0.0789085
0.031322
0.0567112
0.0664265
0.0299773
0.0789085
0.031322
0.0567112
0.0664265
0.0299773
0.191955
0.0407962
0.191955
0.0407962
0.191955
0.0407962
0.191955
0.0407962
0.163814
0.159004
0.163814
0.159004
0.163814
0.159004
0.163814
0.159004
0.0852685
0.157186
0.121171
0.0852685
0.157186
0.121171
0.0852685
0.157186
0.121171
0.0852685
0.157186
0.121171
0.103399
0.155881
0.133802
0.103399
0.155881
0.133802
0.103399
0.155881
0.133802
0.103399
0.155881
0.133802
0.128688
0.0208426
0.0122755
0.128688
0.0147845
0.0208426
0.128688
0.0122755
0.0208426
0.128688
0.00289001
0.0208426
0.0388598
0.0388598
0.0388598
0.0388598
0.0452557
0.0452557
0.0452557
0.0452557
0.148132
0.126185
0.148132
0.126185
0.148132
0.126185
0.148132
0.126185
0.0167481
0.0356575
0.0297866
0.117569
0.0611086
0.192028
0.0651418
0.192028
0.0651418
0.0427699
0.0427699
0.192028
0.0651418
0.0427699
0.192028
0.0651418
0.0427699
0.0777103
0.150357
0.144294
0.0662951
0.0662951
0.0662951
0.0662951
0.129283
0.228242
0.11389
0.107818
0.11389
0.107818
0.11389
0.107818
0.11389
0.107818
0.0367375
0.160825
0.0367375
0.160825
0.0367375
0.160825
0.0367375
0.160825
0.158501
0.158501
0.158501
0.158501
0.019992
0.0100976
0.0336759
0.019992
0.0100976
0.0336759
0.019992
0.0100976
0.0336759
0.019992
0.0100976
0.0336759
0.203291
0.203291
0.21013
0.21013
0.197152
0.0498034
0.00370953
0.168553
0.197152
0.0498034
0.00370953
0.168553
0.197152
0.0498034
0.00370953
0.168553
0.197152
0.0498034
0.00370953
0.168553
0.14024
0.184124
0.0431007
0.0767045
0.193235
0.00674389
0.078099
0.0306454
0.066077
0.179027
0.0252964
0.179027
0.0252964
0.179027
0.0252964
0.179027
0.0252964
0.00400081
0.032223
0.00242923
0.0352781
0.00708007
0.0327488
0.00536153
0.0352111
0.16626
0.117855
0.16626
0.117855
0.16626
0.117855
0.16626
0.117855
0.0760273
0.0459047
0.0760273
0.0459047
0.07595
0.0456052
0.0760273
0.0459047
0.129448
0.122264
0.147755
0.0200748
0.1698
0.141487
0.1698
0.141487
0.1698
0.141487
0.1698
0.141487
0.0947861
0.135275
0.112848
0.0947861
0.135275
0.112848
0.0947861
0.135275
0.112848
0.0947861
0.135275
0.112848
0.0499508
0.074912
0.0154713
0.0991955
0.0408241
0.161531
0.106094
0.161531
0.106094
0.161531
0.106094
0.161531
0.106094
0.0785818
0.0433535
0.0994825
0.0785818
0.0433535
0.0994824
0.066124
0.0433535
0.0994581
0.0767174
0.0433535
0.0993498
0.111769
0.0875268
0.111769
0.0875268
0.111769
0.111769
0.0875268
0.0875268
0.019434
0.0323101
0.000414026
0.019434
0.0323101
0.000414026
0.019434
0.0323101
0.000414026
0.019434
0.0323101
0.000414026
0.081028
0.103817
0.0659507
0.081028
0.103817
0.0659507
0.081028
0.103817
0.0659507
0.081028
0.103817
0.0659507
0.13132
0.131968
0.04406
0.04406
0.04406
0.04406
0.0695306
0.108445
0.0607153
0.333333
0.333333
0.333333
0.333333
0.148801
0.0946025
0.117926
0.0424489
0.175079
0.240085
0.0969
0.0309118
0.082107
0.00687969
0.082107
0.00687969
0.082107
0.00687969
0.082107
0.00687969
0.0866953
0.0973108
0.0134825
0.0866953
0.0973108
0.0134825
0.0866953
0.0973108
0.0134825
0.0866953
0.0973108
0.0134825
0.170122
0.15792
0.0027874
0.0500239
0.0705884
0.00345573
0.362305
0.00345573
0.362305
0.00345573
0.362305
0.00345573
0.362305
0.152108
0.148007
0.230471
0.174723
0.121487
0.0527408
0.121487
0.0527408
0.121487
0.0527408
0.121487
0.0527408
0.00616399
0.0430051
0.0783979
0.0427176
0.0783979
0.0427176
0.0783979
0.0425032
0.0783979
0.0426083
0.116881
0.196267
0.114175
0.198531
0.117382
0.196121
0.114083
0.198235
0.12256
0.111315
0.035707
0.00352727
0.0703817
0.00471864
0.0356697
0.00380527
0.0523948
0.0046242
0.275023
0.0480076
0.0969299
0.0765671
0.0969299
0.0765671
0.0969299
0.0765671
0.0969299
0.0765671
0.268243
0.0111592
0.268243
0.0111592
0.268243
0.0111592
0.268243
0.0111592
0.0190575
0.0649815
0.0638905
0.065357
0.0535312
0.0169711
0.169042
0.109482
0.0169711
0.169042
0.109482
0.0169711
0.0169711
0.169042
0.109482
0.169042
0.109482
0.0104242
0.192416
0.107246
0.11164
0.11164
0.11164
0.11164
0.218319
0.0873233
0.129757
0.0873233
0.129757
0.0873233
0.129757
0.0873233
0.129757
0.128521
0.0864818
0.128611
0.123513
0.0380439
0.109892
0.128521
0.0864815
0.128611
0.112094
0.0604115
0.105475
0.0512626
0.0449241
0.0340606
0.0512634
0.0449254
0.0340203
0.0513586
0.0460439
0.0517491
0.0486808
0.0471182
0.0494238
0.200024
0.19732
0.00604907
0.141071
0.0959696
0.00604907
0.141071
0.0959696
0.00604907
0.141071
0.0959696
0.00604907
0.141071
0.0959696
0.0191032
0.186483
0.0191032
0.186483
0.0272183
0.195074
0.0272316
0.193619
0.000701062
0.139888
0.14702
0.000701062
0.139888
0.14702
0.142132
0.174277
0.000701062
0.139888
0.14702
0.142132
0.174277
0.000701062
0.139888
0.14702
0.142132
0.174277
0.142132
0.174277
0.0873569
0.042674
0.0120217
0.043455
0.0158351
0.0873569
0.042674
0.0120217
0.0873569
0.042674
0.0120217
0.043455
0.0158351
0.043455
0.0158351
0.0873569
0.042674
0.0120217
0.043455
0.0158351
0.134973
0.188241
0.109801
0.134973
0.188241
0.109801
0.134973
0.188241
0.109801
0.134973
0.188241
0.109801
0.167545
0.0464553
0.0558428
0.0464572
0.0558428
0.0362608
0.0818325
0.0450707
0.0616408
0.0955501
0.0809104
0.150902
0.0474463
0.0474463
0.0474463
0.0474463
0.140075
0.160289
0.031755
0.069413
0.177228
0.177228
0.17746
0.177519
0.0411735
0.0257944
0.0556303
0.0411735
0.0257944
0.0556303
0.0328186
0.0242419
0.062805
0.0411735
0.0257944
0.0556303
0.0706621
0.0706621
0.0706621
0.0706621
0.112486
0.112486
0.112486
0.112486
0.0711014
0.0875788
0.0553272
0.0711014
0.0875788
0.0553272
0.0742505
0.0912321
0.0546926
0.0742505
0.0912321
0.0546926
0.146188
0.182939
0.146188
0.182939
0.146188
0.182939
0.146188
0.182939
0.24121
0.194385
0.162841
0.100688
0.0958023
0.162841
0.100688
0.0958023
0.162841
0.100688
0.0958023
0.162841
0.100688
0.0958023
0.0579813
0.103523
0.0526096
0.0644535
0.0226494
0.145359
0.145359
0.145359
0.145359
0.0230358
0.126846
0.212582
0.119927
0.166465
0.00944316
0.199648
0.167257
0.00948357
0.199764
0.066759
0.0511886
0.0338065
0.0819436
0.0545924
0.0288608
0.152029
0.152029
0.152029
0.152029
0.114547
0.150908
0.0201009
0.150908
0.0201009
0.150908
0.0201009
0.150908
0.0201009
0.275042
0.275042
0.275042
0.275042
0.00831263
0.0547642
0.00831263
0.0547642
0.0228702
0.0664381
0.0275869
0.0525043
0.000471187
0.112991
0.21155
0.000471187
0.112991
0.21155
0.000471187
0.112991
0.21155
0.000471187
0.112991
0.21155
0.110835
0.0504343
0.0125643
0.110835
0.0504343
0.0125643
0.110835
0.0504343
0.0125643
0.110835
0.0504343
0.0125643
0.190388
0.159486
0.190388
0.159486
0.190388
0.159486
0.190388
0.159486
0.136065
0.159548
0.136065
0.159548
0.136065
0.159548
0.136065
0.159548
0.0381206
0.0018315
0.0333535
0.0171584
0.0190992
0.0381206
0.0018315
0.0333535
0.0171584
0.0190992
0.0381206
0.0018315
0.0333535
0.0171584
0.0190992
0.0381206
0.0018315
0.0333535
0.0171584
0.0190992
0.0149929
0.0222127
0.0149929
0.0222127
0.0149929
0.0222127
0.0149929
0.0222127
0.158313
0.158313
0.158313
0.158313
0.165244
0.0358581
0.12052
0.0391627
0.173158
0.173158
0.173158
0.173158
0.00878476
0.0292549
0.00878476
0.0292549
0.00878476
0.0292549
0.00878476
0.0292549
0.198148
0.0603065
0.0370315
0.0529909
0.198148
0.0603065
0.0370315
0.0529909
0.198148
0.0603065
0.0370315
0.0529909
0.198148
0.0603065
0.0370315
0.0529909
0.0716608
0.19052
0.0127297
0.0751796
0.178916
0.0625727
0.139106
0.0625727
0.139106
0.0625727
0.139106
0.0625727
0.139106
0.0710516
0.123294
0.0504267
0.0554717
0.0710516
0.123294
0.0504267
0.0554717
0.0710516
0.123294
0.0504267
0.0554717
0.0710516
0.123294
0.0504267
0.0554717
0.0323088
0.0529889
0.111056
0.0313345
0.0526277
0.112979
0.232221
0.118082
0.232221
0.118082
0.232221
0.118082
0.232221
0.118082
0.123421
0.140384
0.0887036
0.0547231
0.0450098
0.0547231
0.0450098
0.0547231
0.0450098
0.0547231
0.0450098
0.0342333
0.00532424
0.128857
0.0342529
0.00532424
0.128899
0.042729
0.00336772
0.130249
0.0420798
0.00284416
0.128898
0.132441
0.132441
0.13246
0.13246
0.0397255
0.0036043
0.0583433
0.0397255
0.0036043
0.0583433
0.0397255
0.0036043
0.0583433
0.0397255
0.0036043
0.0583433
0.158805
0.133857
0.159293
0.131461
0.0452237
0.00605591
0.0637254
0.0452237
0.00605591
0.0637254
0.0452237
0.00605591
0.0637254
0.0452237
0.00605591
0.0637254
0.0462008
0.0852257
0.0462008
0.0852257
0.0462008
0.0852257
0.0462008
0.0852257
0.00107637
0.0548376
0.0188794
0.0122894
0.0109532
0.00926113
0.0162285
0.0171226
0.0166406
0.0161038
0.024596
0.00174148
0.0109532
0.00509146
0.0231969
0.0171226
0.0103354
0.0700087
0.0103354
0.0700087
0.0103354
0.0700087
0.0103354
0.0700087
0.0439488
0.0103649
0.0439488
0.0103649
0.0447062
0.0102607
0.0439488
0.0103649
0.193873
0.18718
0.193873
0.18718
0.193873
0.18718
0.193873
0.18718
0.244918
0.125901
0.244918
0.125891
0.249159
0.113359
0.244918
0.125887
0.00903756
0.0041239
0.0401893
0.03454
0.0618212
0.0295485
0.0348463
0.0348463
0.0347904
0.0348463
0.0319427
0.190784
0.154747
0.226562
0.19074
0.252772
0.0428224
0.060054
0.13104
0.15111
0.0995537
0.0428224
0.060054
0.130993
0.151041
0.0995537
0.068368
0.0708341
0.00820556
0.130739
0.126869
0.0670612
0.0639611
0.00979333
0.131738
0.12641
0.174201
0.174201
0.174201
0.174201
0.0490001
0.10787
0.0490001
0.10787
0.0490001
0.10787
0.0490001
0.10787
0.0765234
0.111814
0.0156883
0.0963441
0.115806
0.134147
0.119655
0.134147
0.119655
0.130736
0.0358869
0.152302
0.136534
0.065754
0.155822
0.17174
0.150637
0.185305
0.0282984
0.0223074
0.0766661
0.110034
0.0223074
0.0766661
0.110034
0.0223074
0.0766661
0.110034
0.0223074
0.0766661
0.110034
0.182734
0.0550817
0.188522
0.0529245
0.241256
0.108732
0.219901
0.274068
0.216189
0.210549
0.210549
0.210549
0.210549
0.0301506
0.136961
0.173798
0.0799092
0.18278
0.166142
0.197819
0.117924
0.102176
0.197499
0.14571
0.0603671
0.0162174
0.179389
0.112867
0.0603671
0.0162174
0.179389
0.112867
0.0603671
0.0162174
0.179389
0.112867
0.0603671
0.0162174
0.179389
0.112867
0.124722
0.124722
0.124722
0.124722
0.0859262
0.112891
0.194677
0.151218
0.140557
0.151693
0.147331
0.00183589
0.0477436
0.00183589
0.0477436
0.00183589
0.0477436
0.00183589
0.0477436
0.303027
0.0225802
0.0338982
0.17203
0.0948941
0.182765
0.153032
0.136594
0.157652
0.136594
0.157652
0.136594
0.157652
0.136594
0.157652
0.205631
0.0577917
0.194933
0.136763
0.0446185
0.0446185
0.0446185
0.0446185
0.0680945
0.0460567
0.0277463
0.171482
0.0786653
0.0360907
0.0409186
0.057733
0.0409186
0.057733
0.0409186
0.057733
0.0409186
0.057733
0.0213075
0.108105
0.0586591
0.169269
0.131224
0.0102149
0.133256
0.0102149
0.133256
0.0102149
0.133256
0.0102149
0.133256
0.0937197
0.0757833
0.0937197
0.0757833
0.0937197
0.0757833
0.0937197
0.0757833
0.270112
0.197991
0.0107552
0.0319772
0.147633
0.17185
0.147633
0.17185
0.147633
0.17185
0.147633
0.17185
0.0804006
0.111958
0.0804006
0.111958
0.0804006
0.111958
0.0804006
0.111958
0.159866
0.111865
0.0490659
0.1528
0.0497821
0.152673
0.0503586
0.134694
0.0497392
0.136256
0.0221271
0.179053
0.0212888
0.179053
0.0212888
0.179053
0.0212888
0.179053
0.0212888
0.0541258
0.0541258
0.0541258
0.0541258
0.00308828
0.0849678
0.0849678
0.0849678
0.0849678
0.00954072
0.0480141
0.0117219
0.0477901
0.00953851
0.0480356
0.00504571
0.0346501
0.128497
0.164045
0.0854429
0.0306488
0.0854429
0.0306488
0.0854429
0.0306488
0.0854429
0.0306488
0.148566
0.166647
0.0965174
0.122853
0.0965174
0.122853
0.0965174
0.122853
0.0965174
0.122853
0.0172335
0.231308
0.0406219
0.0238549
0.0673351
0.097405
0.0072606
0.0164808
0.0238549
0.0672406
0.0951851
0.0072606
0.0164808
0.0311045
0.0139266
0.0258057
0.0146098
0.0534009
0.0591423
0.00280289
0.0113407
0.00712631
0.0191105
0.0755673
0.115372
0.136694
0.0755673
0.115372
0.136694
0.0755673
0.115372
0.136694
0.0755673
0.115372
0.136694
0.188821
0.220106
0.0135695
0.00354226
0.0135695
0.00354226
0.0822835
0.037623
0.0822835
0.037623
0.0135695
0.00354226
0.0822835
0.037623
0.0135695
0.00354226
0.0822835
0.037623
0.071336
0.0608943
0.071336
0.0608943
0.071336
0.0608943
0.071336
0.0608943
0.0674315
0.150951
0.11558
0.0398605
0.0161234
0.0990663
0.0978009
0.121788
0.148795
0.0978009
0.121788
0.148795
0.0978009
0.121788
0.148795
0.0978009
0.121788
0.148795
0.054925
0.054925
0.054925
0.054925
0.0714958
0.20317
0.129062
0.20317
0.129062
0.20317
0.129062
0.20317
0.129062
0.167534
0.14199
0.167534
0.14199
0.167534
0.14199
0.167534
0.14199
0.259067
0.211089
0.259067
0.211089
0.259067
0.211089
0.259067
0.211089
0.0504171
0.0377045
0.0504171
0.0369159
0.0498954
0.0384789
0.0504171
0.0368362
0.0352851
0.100998
0.0429004
0.0429004
0.0429004
0.0429004
0.149786
0.125575
0.224035
0.235086
0.224035
0.235086
0.224035
0.235086
0.224035
0.235086
0.0938094
0.0271532
0.0381248
0.0938094
0.0271532
0.0381248
0.110172
0.0938094
0.0271532
0.0381248
0.110172
0.110172
0.0938094
0.0271532
0.0381248
0.110172
0.0448985
0.0548801
0.0448985
0.0548801
0.0448985
0.0548801
0.0448985
0.0548801
0.198346
0.241059
0.167211
0.0282156
0.155475
0.167211
0.0282156
0.155475
0.167211
0.0282156
0.155475
0.167211
0.0282156
0.155475
0.117396
0.0121804
0.0267005
0.123665
0.0267005
0.123665
0.0267005
0.123665
0.0267005
0.123665
0.148224
0.148224
0.148224
0.148224
0.12772
0.147083
0.12772
0.147083
0.12772
0.147083
0.12772
0.147083
0.087105
0.142638
0.205364
0.0916161
0.0916161
0.0916161
0.0916161
0.0482329
0.052322
0.0662741
0.0702831
0.026421
0.176841
0.204773
0.026421
0.176841
0.204773
0.026421
0.176841
0.204773
0.026421
0.176841
0.204773
0.035202
0.035202
0.035202
0.035202
0.108366
0.112623
0.108366
0.112623
0.126701
0.099093
0.126184
0.100236
0.0210772
0.0548998
0.0210772
0.0548998
0.0123508
0.0548998
0.0210772
0.0548998
0.104629
0.0580079
0.104629
0.0580079
0.104627
0.0580001
0.104627
0.0580001
0.00642029
0.00642029
0.00642029
0.00642029
0.0872623
0.0728606
0.131801
0.131801
0.131801
0.131801
0.0329979
0.29277
0.0329979
0.29277
0.0329979
0.29277
0.0329979
0.29277
0.235002
0.0800935
0.0212102
0.0800935
0.0212102
0.0800935
0.0212102
0.0800935
0.0212102
0.0181416
0.0656393
0.0190098
0.056593
0.0190098
0.056593
0.0190098
0.056593
0.0190098
0.056593
0.0267434
0.0421325
0.000766722
0.000766722
0.000766722
0.000766722
0.135902
0.185366
0.135902
0.185366
0.135902
0.185366
0.135902
0.185366
0.138078
0.138078
0.138078
0.138078
0.141391
0.143162
0.141391
0.143162
0.141391
0.143162
0.141391
0.143162
0.227092
0.16314
0.0486293
0.0595411
0.0317209
0.0270415
0.0486293
0.0700532
0.0417121
0.0450083
0.0712128
0.0712128
0.0712128
0.0712128
0.147698
0.083096
0.147698
0.083096
0.147698
0.083096
0.147698
0.083096
0.0178674
0.0443528
0.0320883
0.0178674
0.0443528
0.0320883
0.0178674
0.0443528
0.0320883
0.0178674
0.0443528
0.0320883
0.104817
0.0341801
0.104817
0.0341454
0.11511
0.0474351
0.104817
0.0341471
0.0365838
0.0365838
0.0365838
0.0365838
0.0820195
0.0820195
0.0820195
0.0820195
0.125
0.135767
0.151868
0.151868
0.151868
0.151868
0.134688
0.134688
0.134688
0.134688
0.116489
0.0470872
0.108575
0.0891153
0.161956
0.149808
0.148959
0.138154
0.358554
0.354429
0.358554
0.354429
0.358554
0.354429
0.358554
0.354429
0.0482025
0.235738
0.131547
0.0482025
0.235738
0.131547
0.0482025
0.235738
0.131547
0.0482025
0.235738
0.131547
0.00694785
0.00375536
0.0355281
0.00411751
0.00249207
0.00249207
0.00249207
0.00249207
0.226218
0.226218
0.226218
0.226218
0.0650893
0.202527
0.138666
0.131152
0.0095652
0.26113
0.26113
0.26113
0.26113
0.158484
0.153802
0.0550636
0.095648
0.158484
0.153802
0.158484
0.153802
0.0550636
0.095648
0.0550636
0.095648
0.158484
0.153802
0.0550636
0.095648
0.0294504
0.00390996
0.0294504
0.00390996
0.0213464
0.0272104
0.0449552
0.00393056
0.140343
0.044017
0.0999561
0.044017
0.0999561
0.044017
0.0999561
0.044017
0.0999561
0.159465
0.0188048
0.159465
0.0188048
0.159465
0.0188048
0.159465
0.0188048
0.178595
0.148319
0.178595
0.148319
0.178595
0.148319
0.178595
0.148319
0.0731434
0.078767
0.153565
0.191631
0.110323
0.244109
0.110323
0.244109
0.110323
0.244109
0.110323
0.244109
0.0717023
0.0339913
0.054478
0.21179
0.21179
0.21179
0.21179
0.047557
0.00499937
0.0659489
0.0934258
0.0633292
0.0340287
0.17134
0.165639
0.17134
0.165639
0.176864
0.182841
0.176419
0.182707
0.00926873
0.0440389
0.00926873
0.0440389
0.00926873
0.0440389
0.00926873
0.0440389
0.0420957
0.0431477
0.0369144
0.0256401
0.0399924
0.045822
0.125269
0.00759833
0.125269
0.00759833
0.125269
0.00759833
0.125269
0.00759833
0.0347427
0.0347427
0.0347427
0.0347427
0.00259479
0.0925841
0.0430746
0.0437053
0.194375
0.240097
0.194376
0.240094
0.220299
0.238187
0.198555
0.240174
0.00472353
0.0445237
0.014111
0.00282166
0.00282166
0.00282166
0.00282166
0.00385647
0.0348164
0.00587373
0.0601188
0.0600534
0.0866914
0.17237
0.100796
0.0668007
0.0824124
0.0518155
0.0824124
0.0518155
0.0824124
0.0518155
0.0824124
0.0518155
0.183079
0.190379
0.00311673
0.00311673
0.00312548
0.00311673
0.131038
0.0721144
0.0317904
0.131038
0.0317904
0.0721144
0.131038
0.0721144
0.0317904
0.131038
0.0721144
0.0317904
0.0154689
0.00228351
0.0813673
0.0813673
0.0810861
0.0813673
0.147971
0.13417
0.0510069
0.0882376
0.0510069
0.0882376
0.0510069
0.0882376
0.0510069
0.0882376
0.0479568
0.0105943
0.107472
0.0674367
0.0130165
0.0295516
0.0130165
0.0295516
0.00245075
0.00949865
0.0121708
0.0101243
0.0296572
0.0296572
0.0296572
0.0296572
0.0162169
0.0971619
0.0162169
0.0971619
0.0162169
0.0971619
0.0162169
0.0971619
0.142229
0.143584
0.155417
0.134252
0.134252
0.134252
0.134252
0.0203459
0.146512
0.109749
0.162362
0.131128
0.145966
0.177687
0.00751905
0.145966
0.177687
0.00751905
0.145966
0.177687
0.00751905
0.145966
0.177687
0.00751905
0.185612
0.0985578
0.184991
0.0988275
0.211512
0.10975
0.210147
0.109331
0.0328926
0.0328926
0.0328926
0.0328926
0.0238273
0.148216
0.0238273
0.148216
0.0238273
0.148216
0.0238273
0.148216
0.0328935
0.00776638
0.0711172
0.0112057
0.0788855
0.115895
0.0133551
0.00693168
0.115895
0.0133551
0.00693168
0.115895
0.0133551
0.00693168
0.115895
0.0133551
0.00693168
0.018212
0.018212
0.0289467
0.0191388
0.0577302
0.0577302
0.0577302
0.0577302
0.0601329
0.0601329
0.0601329
0.0601329
0.0711973
0.162144
0.0849948
0.0711973
0.188508
0.0711973
0.182755
0.0849948
0.0849948
0.0711973
0.188508
0.0849948
0.228885
0.166306
0.228885
0.166306
0.228885
0.166306
0.228885
0.166306
0.0240209
0.115927
0.0240209
0.115927
0.0238251
0.115952
0.0236807
0.115952
0.0202391
0.0644765
0.254063
0.00347585
0.0225391
0.0792381
0.0792381
0.0527039
0.0485113
0.0189627
0.0189627
0.0189627
0.0189627
0.181376
0.129347
0.181376
0.129347
0.181372
0.129274
0.181372
0.129428
0.113396
0.0160971
0.113396
0.0160971
0.113396
0.0160971
0.113396
0.0160971
0.109994
0.109994
0.109994
0.109994
0.0627809
0.00406925
0.0122315
0.01575
0.0991067
0.0620197
0.0843266
0.0666782
0.0219967
0.00327398
0.0251759
0.253144
0.253144
0.253144
0.253144
0.0705209
0.0496802
0.0757888
0.0098399
0.0757888
0.0098399
0.0757888
0.0098399
0.0757888
0.0098399
0.0390399
0.0315543
0.0390399
0.0315543
0.0390399
0.0315543
0.0390399
0.0315543
0.0154047
0.18882
0.0482463
0.0154047
0.18882
0.0482463
0.0154047
0.18882
0.0482463
0.0154047
0.18882
0.0482463
0.110616
0.148625
0.0119247
0.0666081
0.0628952
0.00236672
0.00236672
0.00236672
0.00236672
0.0526051
0.0884587
0.0526051
0.0884587
0.0526051
0.0884587
0.0526051
0.0884587
0.0110437
0.119565
0.0264669
0.0110437
0.119565
0.0264669
0.037814
0.128344
0.0429811
0.0444811
0.119996
0.0371692
0.0675181
0.0675181
0.0675181
0.0675181
0.229833
0.0970616
0.0507141
0.106661
0.101032
0.183976
0.184568
0.183976
0.184568
0.183976
0.184568
0.183976
0.184568
0.0848944
0.0189794
0.0189794
0.0189794
0.0189794
0.0896057
0.0896057
0.0896057
0.0896057
0.0343961
0.0343961
0.0343961
0.0343961
0.091065
0.091065
0.091065
0.091065
0.0601791
0.0200942
0.0658482
0.0200942
0.0658482
0.0200942
0.0658482
0.0200942
0.0658482
0.141093
0.141116
0.112017
0.113155
0.195325
0.195325
0.195325
0.195325
0.130031
0.145455
0.0858219
0.130031
0.145455
0.0858219
0.130031
0.145455
0.0858219
0.130031
0.145455
0.0858219
0.309679
0.357639
0.309679
0.357639
0.309679
0.357639
0.309679
0.357639
0.0263189
0.0119078
0.0639518
0.0284944
0.0253909
0.0853524
0.0144363
0.0800212
0.0800212
0.0800212
0.0800212
0.097962
0.0699739
0.10367
0.0657629
0.0150682
0.0494061
0.0736668
0.0679076
0.0499811
0.0734523
0.0675263
0.0499457
0.0735247
0.0674832
0.057395
0.0390933
0.144572
0.0961284
0.057395
0.0390933
0.144572
0.0961284
0.057395
0.0390933
0.144572
0.0961284
0.057395
0.0390933
0.144572
0.0961284
0.0222492
0.264561
0.288771
0.264609
0.289148
0.256046