/*--------------------------------*- C++ -*----------------------------------*\
| =========                 |                                                 |
| \\      /  F ield         | OpenFOAM: The Open Source CFD Toolbox           |
|  \\    /   O peration     | Version:  2106                                  |
|   \\  /    A nd           | Website:  www.openfoam.com                      |
|    \\/     M anipulation  |                                                 |
\*---------------------------------------------------------------------------*/
FoamFile
{
    version     2.0;
    format      ascii;
    arch        "LSB;label=32;scalar=64";
    class       surfaceScalarField;
    location    "constant";
    object      face_minPyrVolume;
}
// * * * * * * * * * * * * * * * * * * * * * * * * * * * * * * * * * * * * * //

dimensions      [0 0 0 0 0 0 0];

internalField   nonuniform List<scalar> 
3923
(
1.0285e-05
9.1943e-06
7.00097e-06
1.0734e-05
8.4633e-06
8.00776e-06
1.23611e-05
8.64008e-06
8.00776e-06
1.23611e-05
8.64008e-06
8.00776e-06
1.23611e-05
8.64008e-06
8.00776e-06
1.23611e-05
8.64008e-06
8.11981e-06
1.06181e-05
9.79027e-06
8.11981e-06
1.06181e-05
9.79027e-06
8.11981e-06
1.06181e-05
9.79027e-06
8.11981e-06
1.06181e-05
9.79027e-06
8.11981e-06
7.19935e-06
8.11981e-06
7.19935e-06
8.11981e-06
7.19935e-06
8.11981e-06
7.19935e-06
9.95305e-06
1.04131e-05
8.86061e-06
9.02588e-06
6.81537e-06
7.88997e-06
9.02588e-06
6.81537e-06
7.88997e-06
9.30497e-06
6.95582e-06
7.67393e-06
9.25544e-06
6.99393e-06
7.67427e-06
1.14292e-05
1.18605e-05
8.0273e-06
1.14292e-05
1.18605e-05
8.0273e-06
1.14292e-05
1.18605e-05
8.0273e-06
1.14292e-05
1.18605e-05
8.0273e-06
8.72962e-06
1.06393e-05
8.07495e-06
8.61221e-06
1.10917e-05
7.06242e-06
1.02918e-05
8.31839e-06
9.1943e-06
8.58452e-06
7.44481e-06
9.57946e-06
1.02525e-05
9.55616e-06
9.57946e-06
1.02525e-05
9.55616e-06
9.57946e-06
1.02525e-05
9.55616e-06
9.57946e-06
1.02525e-05
9.55616e-06
1.09892e-05
9.90758e-06
7.71972e-06
1.09892e-05
9.90758e-06
7.71972e-06
1.09892e-05
9.90758e-06
7.67126e-06
1.09892e-05
9.90758e-06
7.67126e-06
8.03278e-06
9.41954e-06
1.03616e-05
1.0307e-05
1.01007e-05
1.03616e-05
1.0307e-05
1.01007e-05
1.03616e-05
1.0307e-05
1.01007e-05
1.03616e-05
1.0307e-05
1.01007e-05
9.71365e-06
7.36796e-06
9.71365e-06
7.36796e-06
9.71365e-06
7.36796e-06
9.71365e-06
7.36796e-06
8.83442e-06
9.03489e-06
1.12775e-05
8.4633e-06
7.90445e-06
8.5996e-06
6.0246e-06
1.01322e-05
9.30892e-06
6.80178e-06
1.01322e-05
9.30892e-06
6.80178e-06
1.01322e-05
9.30892e-06
6.80178e-06
1.01322e-05
9.30892e-06
6.80178e-06
1.17582e-05
7.85231e-06
1.17582e-05
7.71114e-06
1.17582e-05
7.38852e-06
1.17582e-05
7.70041e-06
9.59624e-06
9.87457e-06
9.50702e-06
9.59624e-06
9.87457e-06
9.50702e-06
9.59624e-06
9.87457e-06
9.50702e-06
9.59624e-06
9.87457e-06
9.50702e-06
1.1012e-05
1.04939e-05
7.30172e-06
1.1012e-05
1.04939e-05
7.30172e-06
1.1012e-05
1.04939e-05
7.30172e-06
1.1012e-05
1.04939e-05
7.30172e-06
9.6501e-06
8.42099e-06
8.72989e-06
9.6501e-06
8.42099e-06
8.72989e-06
9.6501e-06
8.42099e-06
8.72989e-06
9.6501e-06
8.42099e-06
8.72989e-06
8.00776e-06
8.00776e-06
8.00776e-06
8.00776e-06
8.00776e-06
8.00776e-06
8.00776e-06
8.00776e-06
1.41334e-05
1.23154e-05
1.27696e-05
1.0935e-05
1.41334e-05
1.23154e-05
1.41334e-05
1.23154e-05
1.27696e-05
1.0935e-05
1.27696e-05
1.0935e-05
1.41334e-05
1.23154e-05
1.27696e-05
1.0935e-05
6.42669e-06
8.94939e-06
8.89932e-06
7.9753e-06
8.92719e-06
8.92719e-06
7.9753e-06
8.92719e-06
8.92719e-06
7.9753e-06
8.92719e-06
8.92719e-06
7.9753e-06
8.92719e-06
8.92719e-06
7.9753e-06
7.9753e-06
7.9753e-06
7.9753e-06
7.9753e-06
7.9753e-06
7.9753e-06
7.9753e-06
6.7379e-06
9.57186e-06
9.57186e-06
6.7379e-06
9.57186e-06
9.57186e-06
6.73308e-06
9.65944e-06
9.65944e-06
6.73308e-06
9.92438e-06
9.91257e-06
1.04976e-05
9.932e-06
7.06106e-06
8.75254e-06
8.36095e-06
1.04976e-05
9.932e-06
7.06106e-06
8.75254e-06
8.36095e-06
1.04976e-05
9.932e-06
7.06106e-06
8.75254e-06
8.36095e-06
1.04976e-05
9.932e-06
7.06106e-06
8.75254e-06
8.36095e-06
9.11349e-06
7.4301e-06
6.96566e-06
7.77017e-06
6.30176e-06
8.81106e-06
8.70656e-06
7.73318e-06
7.58567e-06
8.78405e-06
8.92734e-06
7.58567e-06
8.78405e-06
8.92734e-06
7.58567e-06
8.78405e-06
8.92734e-06
7.58567e-06
8.78405e-06
8.92734e-06
9.79027e-06
9.33152e-06
9.2098e-06
9.79027e-06
9.33152e-06
9.2098e-06
9.79027e-06
9.3314e-06
9.2098e-06
9.79027e-06
9.3314e-06
9.2098e-06
8.93728e-06
6.36899e-06
7.87746e-06
1.05359e-05
9.3534e-06
8.32851e-06
8.91673e-06
1.01871e-05
1.10548e-05
1.02153e-05
7.17443e-06
8.95322e-06
9.33959e-06
1.05359e-05
9.3534e-06
8.46105e-06
1.0767e-05
9.96381e-06
8.73312e-06
8.90016e-06
1.01871e-05
8.94009e-06
1.00519e-05
8.43694e-06
9.29969e-06
9.46651e-06
7.00097e-06
8.80583e-06
6.8811e-06
1.08201e-05
7.70243e-06
6.03885e-06
9.86659e-06
7.89017e-06
9.40767e-06
9.35437e-06
9.40767e-06
9.35437e-06
9.40767e-06
9.35437e-06
9.40767e-06
9.35437e-06
9.04009e-06
8.54394e-06
1.024e-05
9.04009e-06
8.54394e-06
1.024e-05
9.04009e-06
8.54394e-06
1.024e-05
9.04009e-06
8.54394e-06
1.024e-05
9.98935e-06
1.0264e-05
8.49715e-06
9.98935e-06
1.0264e-05
8.49715e-06
9.98892e-06
1.0264e-05
8.49715e-06
9.98892e-06
1.0264e-05
8.49715e-06
9.2405e-06
8.07805e-06
1.00511e-05
9.2405e-06
8.07805e-06
1.00511e-05
9.2405e-06
8.07805e-06
1.00511e-05
9.2405e-06
8.07805e-06
1.00511e-05
6.60516e-06
7.58523e-06
9.04009e-06
8.12681e-06
6.68497e-06
9.04009e-06
8.12681e-06
6.68497e-06
9.04009e-06
8.12681e-06
6.68497e-06
9.04009e-06
8.12681e-06
6.68497e-06
8.45416e-06
1.05748e-05
8.45416e-06
1.05748e-05
8.45416e-06
1.05748e-05
8.45416e-06
1.05748e-05
9.03969e-06
7.22975e-06
9.03969e-06
7.22975e-06
9.03969e-06
7.22975e-06
9.03969e-06
7.22975e-06
1.00323e-05
1.00323e-05
6.10637e-06
7.66291e-06
9.4576e-06
9.04009e-06
9.04009e-06
9.04009e-06
9.04009e-06
7.03488e-06
8.17094e-06
7.03488e-06
8.17094e-06
7.04048e-06
8.17098e-06
7.04233e-06
8.17098e-06
9.24279e-06
5.83733e-06
7.90445e-06
6.60516e-06
6.60516e-06
1.09971e-05
1.05842e-05
1.02515e-05
8.78032e-06
8.13862e-06
1.06525e-05
8.1619e-06
1.03879e-05
9.77264e-06
7.8812e-06
7.09477e-06
1.02336e-05
1.05902e-05
8.40438e-06
1.00848e-05
7.08436e-06
8.89633e-06
1.00021e-05
6.96566e-06
7.77382e-06
6.69353e-06
9.03969e-06
8.62094e-06
9.03969e-06
8.62094e-06
9.03969e-06
8.62094e-06
9.03969e-06
8.62094e-06
1.11258e-05
9.57458e-06
7.03183e-06
1.11258e-05
9.57458e-06
7.03183e-06
1.08912e-05
5.9084e-06
1.08912e-05
5.9084e-06
1.11258e-05
9.57458e-06
7.03183e-06
1.11258e-05
9.57458e-06
7.03183e-06
1.08912e-05
5.9084e-06
1.08912e-05
5.9084e-06
1.19741e-05
1.1318e-05
8.7129e-06
8.25056e-06
8.27318e-06
8.61221e-06
1.08254e-05
1.07345e-05
6.7379e-06
6.19783e-06
6.7379e-06
6.19783e-06
6.73308e-06
6.19718e-06
6.73308e-06
6.19718e-06
9.44098e-06
1.05058e-05
9.85967e-06
9.26881e-06
9.63118e-06
7.24146e-06
1.02717e-05
1.02717e-05
8.62825e-06
9.56535e-06
9.71696e-06
8.62825e-06
9.56535e-06
9.71696e-06
8.62825e-06
9.57221e-06
9.71898e-06
8.62825e-06
9.56535e-06
9.71696e-06
9.5221e-06
8.7148e-06
7.67873e-06
9.5221e-06
8.7148e-06
7.67873e-06
9.5221e-06
8.7148e-06
7.67873e-06
9.5221e-06
8.7148e-06
7.67873e-06
6.27799e-06
8.11891e-06
7.33292e-06
7.4651e-06
7.87918e-06
6.58744e-06
7.4651e-06
7.87918e-06
6.58744e-06
7.4651e-06
7.87918e-06
6.58744e-06
7.4651e-06
7.87918e-06
6.58744e-06
8.89322e-06
8.81822e-06
8.89322e-06
8.81822e-06
8.89322e-06
8.81822e-06
8.89322e-06
8.81822e-06
9.6501e-06
9.23475e-06
7.38803e-06
9.6501e-06
9.23475e-06
7.38803e-06
9.6501e-06
9.23475e-06
7.38803e-06
9.6501e-06
9.23475e-06
7.38803e-06
8.31839e-06
8.31839e-06
1.09971e-05
9.3534e-06
1.12816e-05
6.68155e-06
6.62414e-06
1.02153e-05
1.16712e-05
6.86626e-06
8.55468e-06
9.3534e-06
6.70725e-06
1.12816e-05
6.46457e-06
9.96381e-06
7.40915e-06
1.14384e-05
7.13241e-06
8.49715e-06
8.49715e-06
8.49715e-06
8.49715e-06
7.58567e-06
6.88454e-06
7.58567e-06
6.88454e-06
7.58567e-06
6.88454e-06
7.58567e-06
6.88454e-06
6.30315e-06
9.29396e-06
6.16066e-06
9.05437e-06
7.4651e-06
9.36479e-06
9.05437e-06
7.4651e-06
9.36479e-06
9.05437e-06
7.4651e-06
9.36479e-06
9.05437e-06
7.4651e-06
9.36479e-06
6.94233e-06
6.83491e-06
6.94233e-06
6.83491e-06
6.94233e-06
6.83491e-06
6.94233e-06
6.83491e-06
7.82449e-06
8.29681e-06
8.39121e-06
6.82988e-06
6.8811e-06
5.99922e-06
6.03885e-06
9.4271e-06
8.47003e-06
9.4271e-06
8.47003e-06
9.4271e-06
8.47003e-06
9.4271e-06
8.47003e-06
6.27799e-06
5.32202e-06
9.21745e-06
1.17789e-05
9.84845e-06
8.555e-06
9.57946e-06
8.555e-06
9.57946e-06
8.555e-06
9.57946e-06
8.555e-06
9.57946e-06
1.05934e-05
7.23788e-06
1.0883e-05
6.18831e-06
8.72992e-06
7.89689e-06
6.18831e-06
8.72992e-06
7.89689e-06
6.18831e-06
8.72992e-06
7.89689e-06
6.18831e-06
8.72992e-06
7.89689e-06
8.56702e-06
8.56702e-06
8.56702e-06
8.56702e-06
5.79056e-06
4.77205e-06
5.79056e-06
4.77205e-06
5.79056e-06
4.77205e-06
5.79056e-06
4.77205e-06
1.06612e-05
8.5346e-06
1.06612e-05
8.5346e-06
1.06612e-05
8.5346e-06
1.06612e-05
8.5346e-06
6.0246e-06
5.37611e-06
9.05437e-06
8.0273e-06
9.05437e-06
8.0273e-06
9.05437e-06
8.0273e-06
9.05437e-06
8.0273e-06
8.54394e-06
8.54394e-06
8.54394e-06
8.54394e-06
8.54394e-06
8.54394e-06
8.54394e-06
8.54394e-06
6.36899e-06
6.36899e-06
9.89439e-06
9.61156e-06
9.89439e-06
9.61156e-06
9.89439e-06
9.61156e-06
9.89439e-06
9.61156e-06
1.04932e-05
1.04807e-05
1.19741e-05
7.27951e-06
7.58523e-06
9.70291e-06
1.21665e-05
9.01006e-06
1.19741e-05
8.38843e-06
7.30948e-06
9.0758e-06
8.41293e-06
7.28907e-06
9.07669e-06
7.4651e-06
7.4651e-06
7.4651e-06
7.4651e-06
7.70316e-06
5.89791e-06
7.70316e-06
6.09678e-06
1.00398e-05
7.45724e-06
1.00398e-05
7.45724e-06
1.01332e-05
7.4857e-06
1.023e-05
7.48587e-06
9.90758e-06
7.65794e-06
9.90758e-06
7.65794e-06
9.90758e-06
8.28255e-06
9.90758e-06
8.28255e-06
7.24345e-06
9.5425e-06
7.24345e-06
9.5425e-06
7.24345e-06
9.5425e-06
7.24345e-06
9.5425e-06
8.11891e-06
7.90022e-06
1.11042e-05
1.11042e-05
1.11042e-05
1.11042e-05
8.57665e-06
8.57665e-06
8.57665e-06
8.57665e-06
7.48385e-06
6.30176e-06
7.9423e-06
6.14404e-06
7.9423e-06
6.14404e-06
7.9423e-06
6.14404e-06
7.9423e-06
6.14404e-06
7.50383e-06
8.79224e-06
7.50383e-06
8.79224e-06
7.50383e-06
8.79224e-06
7.50383e-06
8.79224e-06
7.86204e-06
7.06136e-06
7.86204e-06
7.06136e-06
7.86204e-06
7.06136e-06
7.86204e-06
7.06136e-06
7.24146e-06
6.58593e-06
8.72989e-06
7.78975e-06
8.72989e-06
7.78975e-06
8.72989e-06
7.78975e-06
8.72989e-06
7.78975e-06
1.10471e-05
1.1012e-05
9.30892e-06
1.10471e-05
1.1012e-05
9.30892e-06
1.10471e-05
1.1012e-05
9.30892e-06
1.10471e-05
1.1012e-05
9.30892e-06
7.18739e-06
6.77893e-06
7.88997e-06
7.4344e-06
7.67393e-06
6.72695e-06
8.53312e-06
7.88997e-06
6.71662e-06
8.38291e-06
7.67427e-06
8.37004e-06
8.62714e-06
8.37004e-06
8.62714e-06
8.37004e-06
8.62714e-06
8.37004e-06
8.62714e-06
1.00848e-05
7.12894e-06
8.86334e-06
9.23331e-06
8.86334e-06
9.23331e-06
8.86334e-06
9.23331e-06
8.86334e-06
9.23331e-06
9.59624e-06
7.65176e-06
7.38335e-06
9.59624e-06
7.65176e-06
7.38335e-06
9.59624e-06
7.65176e-06
7.38335e-06
9.59624e-06
7.65176e-06
7.38335e-06
1.04421e-05
9.86271e-06
1.04421e-05
1.04421e-05
9.86271e-06
1.04421e-05
1.04384e-05
9.85673e-06
1.04384e-05
1.04421e-05
9.86271e-06
1.04421e-05
9.27452e-06
8.68726e-06
9.27452e-06
9.27452e-06
8.68726e-06
9.27452e-06
9.27452e-06
8.68726e-06
9.27452e-06
9.27452e-06
8.68726e-06
9.27452e-06
8.52688e-06
7.21874e-06
8.45416e-06
1.02833e-05
7.52748e-06
8.45416e-06
1.02833e-05
7.52748e-06
8.45416e-06
1.02833e-05
7.52748e-06
8.45416e-06
1.02833e-05
7.52748e-06
7.77017e-06
7.60842e-06
7.92379e-06
8.78706e-06
8.94034e-06
8.34784e-06
8.78706e-06
8.94034e-06
8.34784e-06
8.78706e-06
8.94034e-06
8.34784e-06
8.78706e-06
8.94034e-06
8.34784e-06
8.73275e-06
6.11486e-06
8.73275e-06
6.11486e-06
8.73275e-06
6.11486e-06
8.73275e-06
6.11486e-06
1.13512e-05
1.15827e-05
9.90135e-06
9.00561e-06
1.01682e-05
1.13512e-05
1.15827e-05
9.90135e-06
9.00561e-06
1.01682e-05
1.13512e-05
1.15827e-05
9.90135e-06
9.00561e-06
1.01682e-05
1.13512e-05
1.15827e-05
9.90135e-06
9.00561e-06
1.01682e-05
9.4624e-06
6.8164e-06
9.4624e-06
6.8164e-06
9.4624e-06
6.8164e-06
9.4624e-06
6.8164e-06
1.0307e-05
1.01422e-05
1.0307e-05
1.01422e-05
1.0307e-05
1.01422e-05
1.0307e-05
1.01422e-05
7.93171e-06
7.63895e-06
6.65061e-06
7.93171e-06
7.63895e-06
6.65061e-06
7.93171e-06
7.63895e-06
6.65061e-06
7.93171e-06
7.63895e-06
6.65061e-06
7.92595e-06
7.81819e-06
6.13083e-06
7.92595e-06
7.81819e-06
6.13083e-06
7.92595e-06
7.81819e-06
6.13083e-06
7.92595e-06
7.81819e-06
6.13083e-06
1.23154e-05
8.79224e-06
9.05125e-06
1.23154e-05
1.01949e-05
8.79224e-06
1.23154e-05
9.05125e-06
8.79224e-06
1.23154e-05
9.58717e-06
8.79224e-06
7.78621e-06
7.78621e-06
7.78621e-06
7.78621e-06
8.68119e-06
8.68119e-06
8.68119e-06
8.68119e-06
9.64106e-06
8.27757e-06
9.64106e-06
8.27757e-06
9.64106e-06
8.27757e-06
9.64106e-06
8.27757e-06
7.49574e-06
6.2802e-06
6.06282e-06
7.1636e-06
7.96449e-06
9.71365e-06
1.01046e-05
9.71365e-06
1.01046e-05
8.00207e-06
8.00207e-06
9.71365e-06
1.01046e-05
8.00207e-06
9.71365e-06
1.01046e-05
8.00207e-06
8.13369e-06
7.99998e-06
7.04017e-06
8.46955e-06
8.46955e-06
8.46955e-06
8.46955e-06
7.23811e-06
8.169e-06
8.64008e-06
9.80929e-06
8.64008e-06
9.80929e-06
8.64008e-06
9.80929e-06
8.64008e-06
9.80929e-06
6.75132e-06
9.09869e-06
6.75132e-06
9.09869e-06
6.75132e-06
9.09869e-06
6.75132e-06
9.09869e-06
8.13808e-06
8.13808e-06
8.13808e-06
8.13808e-06
8.36205e-06
7.90505e-06
9.18588e-06
8.36205e-06
7.90505e-06
9.18588e-06
8.36205e-06
7.90505e-06
9.18588e-06
8.36205e-06
7.90505e-06
9.18588e-06
7.76943e-06
7.76943e-06
7.8193e-06
7.8193e-06
8.80948e-06
9.57588e-06
7.94355e-06
7.57566e-06
8.80948e-06
9.57588e-06
7.94355e-06
7.57566e-06
8.80948e-06
9.57588e-06
7.94355e-06
7.57566e-06
8.80948e-06
9.57588e-06
7.94355e-06
7.57566e-06
5.98948e-06
7.90445e-06
5.64105e-06
6.14504e-06
9.57124e-06
1.05423e-05
7.11027e-06
8.18148e-06
7.33235e-06
7.26056e-06
6.87409e-06
7.26056e-06
6.87409e-06
7.26056e-06
6.87409e-06
7.26056e-06
6.87409e-06
8.79375e-06
9.43913e-06
8.79325e-06
9.54127e-06
8.55689e-06
9.41262e-06
8.54333e-06
9.53307e-06
7.24345e-06
6.85634e-06
7.24345e-06
6.85634e-06
7.24345e-06
6.85634e-06
7.24345e-06
6.85634e-06
7.50712e-06
8.21915e-06
7.50712e-06
8.21915e-06
7.52948e-06
8.23018e-06
7.50712e-06
8.21915e-06
9.06464e-06
6.5089e-06
7.78939e-06
6.68484e-06
8.68726e-06
6.81975e-06
8.68726e-06
6.81975e-06
8.68726e-06
6.81975e-06
8.68726e-06
6.81975e-06
8.27757e-06
9.41079e-06
7.58176e-06
8.27757e-06
9.41079e-06
7.58176e-06
8.27757e-06
9.41079e-06
7.58176e-06
8.27757e-06
9.41079e-06
7.58176e-06
8.70347e-06
6.90357e-06
8.70347e-06
8.89932e-06
8.12883e-06
8.75254e-06
8.53046e-06
8.75254e-06
8.53046e-06
8.75254e-06
8.53046e-06
8.75254e-06
8.53046e-06
8.69875e-06
8.89489e-06
7.76888e-06
8.69875e-06
8.89489e-06
7.76888e-06
8.12645e-06
8.89489e-06
7.77087e-06
8.54184e-06
8.89489e-06
7.76878e-06
6.11483e-06
5.46372e-06
6.11483e-06
5.46372e-06
6.11483e-06
6.11483e-06
5.46372e-06
5.46372e-06
8.24429e-06
6.42239e-06
8.24429e-06
8.24429e-06
6.42239e-06
8.24429e-06
8.24429e-06
6.42239e-06
8.24429e-06
8.24429e-06
6.42239e-06
8.24429e-06
8.04867e-06
6.08274e-06
7.40737e-06
8.04867e-06
6.08274e-06
7.40737e-06
8.04867e-06
6.08274e-06
7.40737e-06
8.04867e-06
6.08274e-06
7.40737e-06
8.1619e-06
7.40093e-06
8.46477e-06
8.46477e-06
8.46477e-06
8.46477e-06
8.48827e-06
7.81365e-06
9.58914e-06
8.27757e-06
8.27757e-06
8.27757e-06
8.27757e-06
9.70291e-06
8.169e-06
7.23798e-06
5.63954e-06
9.01006e-06
6.49212e-06
7.87746e-06
4.96723e-06
7.63895e-06
1.28532e-05
7.63895e-06
1.28532e-05
7.63895e-06
1.28532e-05
7.63895e-06
1.28532e-05
7.81819e-06
9.40767e-06
1.20663e-05
7.81819e-06
9.40767e-06
1.20663e-05
7.81819e-06
9.40767e-06
1.20663e-05
7.81819e-06
9.40767e-06
1.20663e-05
5.97948e-06
5.78288e-06
6.8224e-06
6.0512e-06
6.14504e-06
8.84891e-06
7.92846e-06
8.84891e-06
7.92846e-06
8.84891e-06
7.92846e-06
8.84891e-06
7.92846e-06
8.78032e-06
7.5617e-06
1.04807e-05
7.81723e-06
8.7148e-06
7.19949e-06
8.7148e-06
7.19949e-06
8.7148e-06
7.19949e-06
8.7148e-06
7.19949e-06
6.91711e-06
8.97669e-06
1.02099e-05
6.94878e-06
1.02099e-05
6.94878e-06
1.02099e-05
6.95321e-06
1.02099e-05
6.95844e-06
7.35702e-06
8.91673e-06
7.3458e-06
8.95322e-06
7.34608e-06
8.90016e-06
7.34281e-06
8.94009e-06
6.71493e-06
9.0547e-06
9.86271e-06
7.35702e-06
9.86271e-06
7.3458e-06
9.85673e-06
7.34608e-06
9.86271e-06
7.34281e-06
8.17371e-06
7.23798e-06
9.64106e-06
6.81975e-06
9.64106e-06
6.81975e-06
9.64106e-06
6.81975e-06
9.64106e-06
6.81975e-06
1.01046e-05
8.46477e-06
1.01046e-05
8.46477e-06
1.01046e-05
8.46477e-06
1.01046e-05
8.46477e-06
7.03399e-06
5.54923e-06
6.1683e-06
7.4068e-06
7.40644e-06
1.0583e-05
1.04962e-05
8.28512e-06
1.0583e-05
1.04962e-05
8.28512e-06
1.0583e-05
1.0583e-05
1.04962e-05
8.28512e-06
1.04962e-05
8.28512e-06
8.17371e-06
7.95453e-06
8.12883e-06
5.95076e-06
5.95076e-06
5.95076e-06
5.95076e-06
8.17371e-06
6.58744e-06
5.93352e-06
6.58744e-06
5.93352e-06
6.58744e-06
5.93352e-06
6.58744e-06
5.93352e-06
6.44895e-06
7.45402e-06
6.6976e-06
6.38471e-06
7.34257e-06
6.82425e-06
6.44895e-06
7.45402e-06
6.6976e-06
6.41981e-06
7.02847e-06
6.75869e-06
7.23591e-06
7.02815e-06
8.11499e-06
7.23591e-06
7.02816e-06
8.11489e-06
7.23479e-06
7.03022e-06
7.48014e-06
7.23795e-06
6.94692e-06
7.77154e-06
6.19263e-06
4.47903e-06
8.60369e-06
7.80974e-06
7.45814e-06
8.60369e-06
7.80974e-06
7.45814e-06
8.60369e-06
7.80974e-06
7.45814e-06
8.60369e-06
7.80974e-06
7.45814e-06
6.44895e-06
6.81537e-06
6.44895e-06
6.81537e-06
6.38471e-06
6.95582e-06
6.41981e-06
6.99393e-06
8.63706e-06
7.60662e-06
8.14542e-06
8.63706e-06
7.60662e-06
8.14542e-06
8.63706e-06
6.71739e-06
8.63706e-06
7.60662e-06
8.14542e-06
8.63706e-06
6.71739e-06
8.63706e-06
7.60662e-06
8.14542e-06
8.63706e-06
6.71739e-06
8.63706e-06
6.71739e-06
1.12047e-05
8.85438e-06
1.14243e-05
1.04886e-05
9.27896e-06
1.12047e-05
8.85438e-06
1.14243e-05
1.12047e-05
8.85438e-06
1.14243e-05
1.04886e-05
9.27896e-06
1.04886e-05
9.27896e-06
1.12047e-05
8.85438e-06
1.14243e-05
1.04886e-05
9.27896e-06
7.98832e-06
7.30279e-06
7.28443e-06
7.98832e-06
7.30279e-06
7.28443e-06
7.98832e-06
7.30279e-06
7.28443e-06
7.98832e-06
7.30279e-06
7.28443e-06
7.00097e-06
6.96596e-06
8.69875e-06
6.96599e-06
8.69875e-06
6.92768e-06
8.12645e-06
6.8464e-06
8.54184e-06
5.83318e-06
6.88622e-06
6.67736e-06
7.15654e-06
7.15654e-06
7.15654e-06
7.15654e-06
8.16012e-06
7.23788e-06
7.38232e-06
7.35856e-06
6.24389e-06
6.24388e-06
6.24333e-06
6.24529e-06
8.34216e-06
9.47873e-06
1.0287e-05
8.34216e-06
9.47873e-06
1.0287e-05
8.59504e-06
9.36037e-06
1.04901e-05
8.34216e-06
9.47873e-06
1.0287e-05
7.22975e-06
7.22975e-06
7.22975e-06
7.22975e-06
6.80178e-06
6.80178e-06
6.80178e-06
6.80178e-06
7.76943e-06
7.08609e-06
7.44593e-06
7.76943e-06
7.08609e-06
7.44593e-06
7.8193e-06
7.17613e-06
7.44593e-06
7.8193e-06
7.17613e-06
7.44593e-06
7.80974e-06
7.98458e-06
7.80974e-06
7.98458e-06
7.80974e-06
7.98458e-06
7.80974e-06
7.98458e-06
7.36282e-06
6.70374e-06
9.0507e-06
9.4271e-06
8.57665e-06
9.0507e-06
9.4271e-06
8.57665e-06
9.0507e-06
9.4271e-06
8.57665e-06
9.0507e-06
9.4271e-06
8.57665e-06
9.55125e-06
7.39084e-06
8.24304e-06
1.02552e-05
9.66721e-06
8.81364e-06
8.81364e-06
8.81364e-06
8.81364e-06
5.64105e-06
5.64105e-06
6.70275e-06
6.01325e-06
5.53104e-06
8.1602e-06
6.73765e-06
5.5959e-06
8.1602e-06
6.73697e-06
9.21656e-06
6.77122e-06
7.88169e-06
9.61067e-06
7.33292e-06
7.88798e-06
8.28043e-06
8.28043e-06
8.28043e-06
8.28043e-06
6.20617e-06
7.65745e-06
7.16332e-06
7.65745e-06
7.16332e-06
7.65745e-06
7.16332e-06
7.65745e-06
7.16332e-06
6.18206e-06
6.18206e-06
6.18206e-06
6.18206e-06
8.61488e-06
9.5023e-06
8.61488e-06
9.5023e-06
8.77361e-06
9.80183e-06
8.51359e-06
9.19824e-06
8.35909e-06
6.2265e-06
7.89735e-06
8.35909e-06
6.2265e-06
7.89735e-06
8.35909e-06
6.2265e-06
7.89735e-06
8.35909e-06
6.2265e-06
7.89735e-06
8.74137e-06
6.53644e-06
7.65745e-06
8.74137e-06
6.53644e-06
7.65745e-06
8.74137e-06
6.53644e-06
7.65745e-06
8.74137e-06
6.53644e-06
7.65745e-06
1.06983e-05
8.94537e-06
1.06983e-05
8.94537e-06
1.06983e-05
8.94537e-06
1.06983e-05
8.94537e-06
8.85438e-06
7.32818e-06
8.85438e-06
7.32818e-06
8.85438e-06
7.32818e-06
8.85438e-06
7.32818e-06
1.00654e-05
9.55616e-06
7.51318e-06
8.4596e-06
7.25099e-06
1.00654e-05
9.55616e-06
7.51318e-06
8.4596e-06
7.25099e-06
1.00654e-05
9.55616e-06
7.51318e-06
8.4596e-06
7.25099e-06
1.00654e-05
9.55616e-06
7.51318e-06
8.4596e-06
7.25099e-06
1.01356e-05
1.04962e-05
1.01356e-05
1.04962e-05
1.01356e-05
1.04962e-05
1.01356e-05
1.04962e-05
8.85438e-06
8.85438e-06
8.85438e-06
8.85438e-06
1.02264e-05
6.49212e-06
9.12515e-06
8.07248e-06
7.30279e-06
7.30279e-06
7.30279e-06
7.30279e-06
8.90741e-06
8.60584e-06
8.90741e-06
8.60584e-06
8.90741e-06
8.60584e-06
8.90741e-06
8.60584e-06
1.05748e-05
1.01892e-05
8.00207e-06
7.42982e-06
1.05748e-05
1.01892e-05
8.00207e-06
7.42982e-06
1.05748e-05
1.01892e-05
8.00207e-06
7.42982e-06
1.05748e-05
1.01892e-05
8.00207e-06
7.42982e-06
7.94595e-06
6.87969e-06
5.54446e-06
7.90022e-06
7.34213e-06
7.05995e-06
6.49971e-06
7.05995e-06
6.49971e-06
7.05995e-06
6.49971e-06
7.05995e-06
6.49971e-06
7.26056e-06
7.0255e-06
9.38532e-06
8.60584e-06
7.26056e-06
7.0255e-06
9.38532e-06
8.60584e-06
7.26056e-06
7.0255e-06
9.38532e-06
8.60584e-06
7.26056e-06
7.0255e-06
9.38532e-06
8.60584e-06
6.23128e-06
8.82083e-06
8.13862e-06
6.24649e-06
8.82089e-06
8.40438e-06
1.01892e-05
7.36796e-06
1.01892e-05
7.36796e-06
1.01892e-05
7.36796e-06
1.01892e-05
7.36796e-06
9.58166e-06
6.82988e-06
5.99922e-06
8.46323e-06
9.38321e-06
8.46323e-06
9.38321e-06
8.46323e-06
9.38321e-06
8.46323e-06
9.38321e-06
5.80259e-06
6.74998e-06
5.95524e-06
5.80476e-06
6.74998e-06
5.95499e-06
5.88978e-06
6.50689e-06
6.25528e-06
5.89687e-06
6.50755e-06
5.95508e-06
7.71972e-06
7.71972e-06
7.67126e-06
7.67126e-06
8.94537e-06
8.44153e-06
7.71826e-06
8.94537e-06
8.44153e-06
7.71826e-06
8.94537e-06
8.44153e-06
7.71826e-06
8.94537e-06
8.44153e-06
7.71826e-06
6.23128e-06
4.83846e-06
6.24649e-06
4.87109e-06
7.81822e-06
7.91314e-06
7.27116e-06
7.81822e-06
7.91314e-06
7.27116e-06
7.81822e-06
7.91314e-06
7.27116e-06
7.81822e-06
7.91314e-06
7.27116e-06
6.83491e-06
5.33232e-06
6.83491e-06
5.33232e-06
6.83491e-06
5.33232e-06
6.83491e-06
5.33232e-06
9.33959e-06
7.95453e-06
7.81748e-06
9.33959e-06
1.00856e-05
8.89474e-06
6.77067e-06
1.01871e-05
9.97239e-06
8.58026e-06
6.79651e-06
1.00519e-05
1.00856e-05
8.9236e-06
6.55573e-06
1.01871e-05
5.79056e-06
9.22718e-06
5.79056e-06
9.22718e-06
5.79056e-06
9.22718e-06
5.79056e-06
9.22718e-06
9.14767e-06
6.13459e-06
9.14767e-06
6.13459e-06
9.13447e-06
6.13459e-06
9.14767e-06
6.13459e-06
7.65176e-06
6.8164e-06
7.65176e-06
6.8164e-06
7.65176e-06
6.8164e-06
7.65176e-06
6.8164e-06
7.50712e-06
5.77748e-06
7.50712e-06
5.77818e-06
7.52948e-06
5.66588e-06
7.50712e-06
5.77811e-06
8.7129e-06
9.57429e-06
8.89474e-06
8.27318e-06
8.80057e-06
8.80057e-06
1.16431e-05
1.16431e-05
1.16423e-05
1.16431e-05
1.07663e-05
1.04984e-05
6.80641e-06
5.99403e-06
4.47903e-06
5.64077e-06
9.1499e-06
8.41596e-06
7.82686e-06
6.73622e-06
6.06633e-06
9.1499e-06
8.41596e-06
7.82924e-06
6.73732e-06
6.06633e-06
8.23191e-06
9.21656e-06
9.63541e-06
6.18258e-06
6.01497e-06
8.2887e-06
9.61067e-06
9.63541e-06
6.2206e-06
6.01842e-06
6.94233e-06
6.94233e-06
6.94233e-06
6.94233e-06
7.5518e-06
7.7452e-06
7.5518e-06
7.7452e-06
7.5518e-06
7.7452e-06
7.5518e-06
7.7452e-06
6.39589e-06
7.40644e-06
9.40838e-06
8.70656e-06
7.60842e-06
6.44895e-06
7.70316e-06
6.44895e-06
7.70316e-06
6.38471e-06
6.5372e-06
7.42486e-06
6.41981e-06
6.92965e-06
7.5974e-06
6.09055e-06
4.72157e-06
5.83318e-06
5.83318e-06
8.96888e-06
7.77898e-06
8.34784e-06
8.96888e-06
7.77898e-06
8.34784e-06
8.96888e-06
7.77898e-06
8.34784e-06
8.96888e-06
7.77898e-06
8.34784e-06
5.53104e-06
4.83846e-06
5.5959e-06
4.87109e-06
6.46457e-06
5.44433e-06
7.13241e-06
8.92317e-06
5.74057e-06
7.90914e-06
7.90914e-06
7.90914e-06
7.90914e-06
8.39293e-06
6.77893e-06
7.81748e-06
8.87564e-06
7.4344e-06
6.77067e-06
8.53312e-06
6.79651e-06
8.85761e-06
8.38291e-06
6.55573e-06
8.67597e-06
1.01682e-05
7.0255e-06
6.87409e-06
8.67597e-06
1.01682e-05
7.0255e-06
6.87409e-06
8.67597e-06
1.01682e-05
7.0255e-06
6.87409e-06
8.67597e-06
1.01682e-05
7.0255e-06
6.87409e-06
6.1048e-06
6.1048e-06
6.1048e-06
6.1048e-06
1.05708e-05
1.07345e-05
9.41929e-06
7.30948e-06
6.49866e-06
7.28907e-06
6.51194e-06
9.19185e-06
7.22123e-06
9.19185e-06
7.22123e-06
9.19185e-06
7.22123e-06
9.19185e-06
7.22123e-06
6.71662e-06
7.88087e-06
7.96188e-06
7.07671e-06
6.30176e-06
7.38232e-06
6.32216e-06
7.5518e-06
7.205e-06
7.5518e-06
7.205e-06
7.5518e-06
7.205e-06
7.5518e-06
7.205e-06
7.18626e-06
5.89791e-06
5.64077e-06
6.09678e-06
6.1048e-06
6.1048e-06
6.1048e-06
6.1048e-06
7.99998e-06
7.24976e-06
1.04984e-05
9.77264e-06
8.58573e-06
6.96566e-06
9.69175e-06
7.44593e-06
9.69175e-06
7.44593e-06
9.69175e-06
7.44593e-06
9.69175e-06
7.44593e-06
7.22194e-06
6.38589e-06
6.10637e-06
6.5372e-06
6.92965e-06
7.13346e-06
6.76683e-06
7.13346e-06
6.76683e-06
7.13346e-06
6.76683e-06
7.13346e-06
6.76683e-06
9.96324e-06
7.77873e-06
9.96324e-06
7.77873e-06
9.96324e-06
7.77873e-06
9.96324e-06
7.77873e-06
7.4301e-06
5.74057e-06
7.60776e-06
1.05842e-05
7.32818e-06
7.51318e-06
7.32818e-06
7.51318e-06
7.32818e-06
7.51318e-06
7.32818e-06
7.51318e-06
8.44153e-06
7.87943e-06
8.44153e-06
7.87943e-06
8.44153e-06
7.87943e-06
8.44153e-06
7.87943e-06
8.7129e-06
8.27318e-06
5.80259e-06
5.80259e-06
5.80476e-06
5.80476e-06
5.73152e-06
5.88978e-06
5.72509e-06
5.89687e-06
7.03461e-06
6.2265e-06
6.14404e-06
6.2265e-06
6.14404e-06
6.2265e-06
6.14404e-06
6.2265e-06
6.14404e-06
7.36796e-06
7.36796e-06
7.36796e-06
7.36796e-06
7.59938e-06
6.66341e-06
6.66341e-06
6.66341e-06
6.66341e-06
6.96596e-06
9.0758e-06
6.92768e-06
8.06362e-06
6.96599e-06
9.07669e-06
6.8464e-06
8.28193e-06
7.24976e-06
7.04017e-06
8.81364e-06
7.06106e-06
8.81364e-06
7.06106e-06
8.81364e-06
7.06106e-06
8.81364e-06
7.06106e-06
5.98632e-06
6.0512e-06
8.28043e-06
6.64193e-06
8.28043e-06
6.64193e-06
8.28043e-06
6.64193e-06
8.28043e-06
6.64193e-06
9.4576e-06
8.85761e-06
9.21912e-06
8.05069e-06
8.82083e-06
7.5617e-06
7.9077e-06
7.81079e-06
8.05069e-06
8.82089e-06
7.81723e-06
7.9077e-06
7.81079e-06
8.14403e-06
7.07671e-06
5.89529e-06
8.14403e-06
8.02157e-06
7.95906e-06
7.28235e-06
6.71493e-06
7.95293e-06
7.65669e-06
7.94767e-06
6.75132e-06
6.40565e-06
7.94767e-06
6.75132e-06
6.40565e-06
7.94767e-06
6.75132e-06
6.40565e-06
7.94767e-06
6.75132e-06
6.40565e-06
5.1073e-06
4.89505e-06
8.46955e-06
5.86796e-06
8.46955e-06
5.86796e-06
8.02302e-06
6.5522e-06
8.02302e-06
6.5522e-06
8.46955e-06
5.86796e-06
8.02302e-06
6.5522e-06
8.46955e-06
5.86796e-06
8.02302e-06
6.5522e-06
8.37004e-06
7.60808e-06
8.37004e-06
7.60808e-06
8.37004e-06
7.60808e-06
8.37004e-06
7.60808e-06
1.11683e-05
9.37758e-06
7.5654e-06
6.04863e-06
5.99922e-06
8.39293e-06
9.07214e-06
7.90505e-06
8.53046e-06
9.07214e-06
7.90505e-06
8.53046e-06
9.07214e-06
7.90505e-06
8.53046e-06
9.07214e-06
7.90505e-06
8.53046e-06
7.71826e-06
7.71826e-06
7.71826e-06
7.71826e-06
9.41929e-06
8.12681e-06
5.2076e-06
8.12681e-06
5.2076e-06
8.12681e-06
5.2076e-06
8.12681e-06
5.2076e-06
5.78974e-06
6.42239e-06
5.78974e-06
6.42239e-06
5.78974e-06
6.42239e-06
5.78974e-06
6.42239e-06
7.13346e-06
7.13346e-06
7.13346e-06
7.13346e-06
7.13346e-06
7.13346e-06
7.13346e-06
7.13346e-06
8.59922e-06
7.08901e-06
8.59922e-06
7.11363e-06
8.28857e-06
7.06826e-06
8.59922e-06
7.11037e-06
5.98632e-06
6.88246e-06
6.50346e-06
6.50346e-06
6.50346e-06
6.50346e-06
6.80641e-06
6.3021e-06
7.60808e-06
7.71826e-06
7.60808e-06
7.71826e-06
7.60808e-06
7.71826e-06
7.60808e-06
7.71826e-06
7.9423e-06
8.32559e-06
7.15654e-06
7.9423e-06
8.32559e-06
7.15654e-06
7.41273e-06
7.9423e-06
8.32559e-06
7.15654e-06
7.41273e-06
7.41273e-06
7.9423e-06
8.32559e-06
7.15654e-06
7.41273e-06
8.44153e-06
7.93587e-06
8.44153e-06
7.93587e-06
8.44153e-06
7.93587e-06
8.44153e-06
7.93587e-06
5.69134e-06
4.89505e-06
9.932e-06
1.04431e-05
8.68119e-06
9.932e-06
1.04431e-05
8.68119e-06
9.932e-06
1.04431e-05
8.68119e-06
9.932e-06
1.04431e-05
8.68119e-06
1.0779e-05
6.65721e-06
7.22123e-06
7.42603e-06
7.22123e-06
7.42603e-06
7.22123e-06
7.42603e-06
7.22123e-06
7.42603e-06
6.64193e-06
6.64193e-06
6.64193e-06
6.64193e-06
9.36633e-06
7.06106e-06
9.36633e-06
7.06106e-06
9.36633e-06
7.06106e-06
9.36633e-06
7.06106e-06
9.58914e-06
5.83733e-06
5.24803e-06
7.90505e-06
7.90505e-06
7.90505e-06
7.90505e-06
6.77893e-06
7.38852e-06
7.71114e-06
7.70041e-06
1.03242e-05
7.58611e-06
7.78621e-06
1.03242e-05
7.58611e-06
7.78621e-06
1.03242e-05
7.58611e-06
7.78621e-06
1.03242e-05
7.58611e-06
7.78621e-06
6.43942e-06
6.43942e-06
6.43942e-06
6.43942e-06
5.7025e-06
6.06633e-06
5.7025e-06
6.06633e-06
5.48218e-06
6.01497e-06
5.46207e-06
6.01842e-06
9.47873e-06
5.68457e-06
9.47873e-06
5.68457e-06
9.36037e-06
5.68457e-06
9.47873e-06
5.68457e-06
7.19255e-06
8.17094e-06
7.19255e-06
8.17094e-06
7.19276e-06
8.17098e-06
7.19276e-06
8.17098e-06
7.78975e-06
7.78975e-06
7.78975e-06
7.78975e-06
9.44098e-06
9.26881e-06
8.88753e-06
8.88753e-06
8.88753e-06
8.88753e-06
6.18206e-06
7.19935e-06
6.18206e-06
7.19935e-06
6.18206e-06
7.19935e-06
6.18206e-06
7.19935e-06
6.41293e-06
8.54196e-06
8.36095e-06
8.54196e-06
8.36095e-06
8.54196e-06
8.36095e-06
8.54196e-06
8.36095e-06
8.23484e-06
9.59806e-06
8.46803e-06
8.59876e-06
8.46803e-06
8.59876e-06
8.46803e-06
8.59876e-06
8.46803e-06
8.59876e-06
8.23484e-06
6.79509e-06
7.0255e-06
7.0255e-06
7.0255e-06
7.0255e-06
6.71739e-06
7.54377e-06
6.71739e-06
7.54377e-06
6.71739e-06
7.54377e-06
6.71739e-06
7.54377e-06
9.23331e-06
9.23331e-06
9.23331e-06
9.23331e-06
6.08274e-06
7.05995e-06
6.08274e-06
7.05995e-06
6.08274e-06
7.05995e-06
6.08274e-06
7.05995e-06
7.87746e-06
7.36103e-06
9.05125e-06
7.29744e-06
1.01949e-05
8.37132e-06
9.05125e-06
7.34853e-06
9.58717e-06
7.95243e-06
7.38803e-06
7.38803e-06
7.38803e-06
7.38803e-06
9.35437e-06
5.33232e-06
9.35437e-06
5.33232e-06
9.35437e-06
5.33232e-06
9.35437e-06
5.33232e-06
9.55616e-06
9.82425e-06
7.60808e-06
9.55616e-06
9.82425e-06
7.60808e-06
9.55616e-06
9.82425e-06
7.60808e-06
9.55616e-06
9.82425e-06
7.60808e-06
8.59922e-06
6.64368e-06
8.59922e-06
6.64364e-06
8.28857e-06
6.17369e-06
8.59922e-06
6.64354e-06
8.99374e-06
8.99374e-06
8.99374e-06