/*--------------------------------*- C++ -*----------------------------------*\
| =========                 |                                                 |
| \\      /  F ield         | OpenFOAM: The Open Source CFD Toolbox           |
|  \\    /   O peration     | Version:  v2106                                 |
|   \\  /    A nd           | Website:  www.openfoam.com                      |
|    \\/     M anipulation  |                                                 |
\*---------------------------------------------------------------------------*/
FoamFile
{
    version     2.0;
    format      ascii;
    arch        "LSB;label=32;scalar=64";
    class       surfaceScalarField;
    location    "constant";
    object      face_faceWeight;
}
// * * * * * * * * * * * * * * * * * * * * * * * * * * * * * * * * * * * * * //

dimensions      [0 0 0 0 0 0 0];

internalField   nonuniform List<scalar> 
3923
(
0.510681
0.472004
0.405009
0.504422
0.44086
0.393137
0.51442
0.411409
0.393137
0.51442
0.411409
0.393137
0.51442
0.411409
0.393137
0.51442
0.411409
0.417739
0.484054
0.463819
0.417739
0.484054
0.463819
0.417739
0.484054
0.463819
0.417739
0.484054
0.463819
0.521484
0.469957
0.521484
0.469957
0.521484
0.469957
0.521484
0.469957
0.468349
0.479614
0.439538
0.565731
0.430229
0.466425
0.565731
0.430229
0.466425
0.558236
0.427766
0.451969
0.559551
0.430412
0.453302
0.442603
0.451759
0.358028
0.442603
0.451759
0.358028
0.442603
0.451759
0.358028
0.442603
0.451759
0.358028
0.450702
0.544626
0.431486
0.43228
0.495116
0.384392
0.500229
0.44698
0.471838
0.463088
0.427915
0.483031
0.509772
0.482423
0.483031
0.509772
0.482423
0.483031
0.509772
0.482423
0.483031
0.509772
0.482423
0.516204
0.474119
0.412622
0.516204
0.474119
0.412622
0.516204
0.474119
0.411096
0.516204
0.474119
0.411096
0.423707
0.462988
0.440107
0.438808
0.433834
0.440107
0.438808
0.433834
0.440107
0.438808
0.433834
0.440107
0.438808
0.433834
0.477757
0.409648
0.477757
0.409648
0.477757
0.409648
0.477757
0.409648
0.461673
0.467254
0.449075
0.379546
0.363596
0.432639
0.348201
0.460198
0.439229
0.363991
0.460198
0.439229
0.363991
0.460198
0.439229
0.363991
0.460198
0.439229
0.363991
0.545868
0.400413
0.545868
0.396065
0.545868
0.385889
0.545868
0.395732
0.440181
0.447238
0.437881
0.440181
0.447238
0.437881
0.440181
0.447238
0.437881
0.440181
0.447238
0.437881
0.470532
0.458545
0.370777
0.470532
0.458545
0.370777
0.470532
0.458545
0.370777
0.470532
0.458545
0.370777
0.47688
0.443052
0.451959
0.47688
0.443052
0.451959
0.47688
0.443052
0.451959
0.47688
0.443052
0.451959
0.538842
0.509729
0.538842
0.509729
0.538842
0.509729
0.538842
0.509729
0.520885
0.465633
0.453866
0.415769
0.520885
0.465633
0.520885
0.465633
0.453866
0.415769
0.453866
0.415769
0.520885
0.465633
0.453866
0.415769
0.389693
0.470665
0.469267
0.471842
0.537182
0.503435
0.471842
0.537182
0.503435
0.471842
0.537182
0.503435
0.471842
0.537182
0.503435
0.538434
0.500496
0.538434
0.500496
0.538434
0.500496
0.538434
0.500496
0.413121
0.527983
0.505928
0.413121
0.527983
0.5059
0.410741
0.530536
0.502683
0.404208
0.530857
0.499702
0.478682
0.464879
0.381808
0.454673
0.443349
0.478682
0.464879
0.381808
0.454673
0.443349
0.478682
0.464879
0.381808
0.454673
0.443349
0.478682
0.464879
0.381808
0.454673
0.443349
0.492512
0.441723
0.425871
0.460218
0.4088
0.536375
0.497017
0.467424
0.393896
0.429403
0.433372
0.393896
0.429403
0.433372
0.393896
0.429403
0.433372
0.393896
0.429403
0.433372
0.422458
0.410795
0.40762
0.422458
0.410795
0.40762
0.422458
0.410791
0.40762
0.422458
0.410791
0.40762
0.584536
0.416103
0.468485
0.512533
0.470274
0.441494
0.445962
0.47906
0.507986
0.480265
0.393567
0.439596
0.450029
0.512533
0.470274
0.44539
0.513701
0.480628
0.44785
0.445503
0.47906
0.4401
0.469153
0.452854
0.47707
0.517832
0.425139
0.481921
0.388737
0.540129
0.415841
0.379672
0.555063
0.444347
0.48146
0.480042
0.48146
0.480042
0.48146
0.480042
0.48146
0.480042
0.444939
0.431046
0.475893
0.444939
0.431046
0.475893
0.444939
0.431046
0.475893
0.444939
0.431046
0.475893
0.482684
0.48946
0.442486
0.482684
0.48946
0.442486
0.482673
0.48946
0.442486
0.482673
0.48946
0.442486
0.453545
0.42048
0.474455
0.453545
0.42048
0.474455
0.453545
0.42048
0.474455
0.453545
0.42048
0.474455
0.393824
0.42729
0.48054
0.454035
0.406202
0.48054
0.454035
0.406202
0.48054
0.454035
0.406202
0.48054
0.454035
0.406202
0.418947
0.474203
0.418947
0.474203
0.418947
0.474203
0.418947
0.474203
0.491383
0.435882
0.491383
0.435882
0.491383
0.435882
0.491383
0.435882
0.501612
0.512316
0.378369
0.431467
0.483646
0.521097
0.521097
0.521097
0.521097
0.413228
0.449935
0.413228
0.449935
0.413431
0.449946
0.413495
0.449946
0.545567
0.387088
0.460975
0.578478
0.501337
0.497752
0.488189
0.509592
0.46135
0.442555
0.552978
0.433812
0.440814
0.425822
0.431394
0.405816
0.455342
0.463848
0.407084
0.496339
0.409076
0.470745
0.533896
0.410524
0.466332
0.429351
0.508802
0.488145
0.508802
0.488145
0.508802
0.488145
0.508802
0.488145
0.509772
0.462531
0.387266
0.509772
0.462531
0.387266
0.484903
0.338053
0.484903
0.338053
0.509772
0.462531
0.387266
0.509772
0.462531
0.387266
0.484903
0.338053
0.484903
0.338053
0.487774
0.473709
0.499521
0.485894
0.489961
0.517018
0.459677
0.457583
0.517819
0.479125
0.517819
0.479125
0.517959
0.479277
0.518068
0.479277
0.465845
0.492509
0.529402
0.484555
0.494138
0.413486
0.505334
0.524231
0.470327
0.496069
0.503479
0.470327
0.496069
0.503479
0.470275
0.496196
0.503462
0.470327
0.496069
0.503479
0.538352
0.477866
0.446416
0.538352
0.477866
0.446416
0.538352
0.477866
0.446416
0.538352
0.477866
0.446416
0.436049
0.499983
0.47455
0.486507
0.565625
0.455354
0.486507
0.565625
0.455354
0.486507
0.565625
0.455354
0.486507
0.565625
0.455354
0.474817
0.472706
0.474817
0.472706
0.474817
0.472706
0.474817
0.472706
0.45512
0.444234
0.390048
0.45512
0.444234
0.390048
0.45512
0.444234
0.390048
0.45512
0.444234
0.390048
0.503537
0.531039
0.497858
0.453278
0.546108
0.371958
0.414591
0.46674
0.539926
0.370399
0.455764
0.546722
0.41762
0.54554
0.364279
0.534449
0.426476
0.545069
0.384066
0.464645
0.464645
0.464645
0.464645
0.510051
0.475773
0.510051
0.475773
0.510051
0.475773
0.510051
0.475773
0.404123
0.533809
0.398629
0.491574
0.443562
0.505573
0.491574
0.443562
0.505573
0.491574
0.443562
0.505573
0.491574
0.443562
0.505573
0.438401
0.434566
0.438401
0.434566
0.438401
0.434566
0.438401
0.434566
0.421739
0.436095
0.438879
0.498132
0.502112
0.498354
0.529002
0.452002
0.425645
0.452002
0.425645
0.452002
0.425645
0.452002
0.425645
0.546499
0.458794
0.439003
0.508094
0.45537
0.471754
0.507041
0.471754
0.507041
0.471754
0.507077
0.471754
0.507041
0.493259
0.399422
0.518866
0.401861
0.486598
0.461599
0.401861
0.486598
0.461599
0.401861
0.486598
0.461599
0.401861
0.486598
0.461599
0.470273
0.470273
0.470273
0.470273
0.483398
0.435392
0.483398
0.435392
0.483398
0.435392
0.483398
0.435392
0.53309
0.444607
0.53309
0.444607
0.53309
0.444607
0.53309
0.444607
0.488702
0.460313
0.52001
0.469936
0.52001
0.469936
0.52001
0.469936
0.52001
0.469936
0.507899
0.522959
0.507899
0.522959
0.507899
0.522959
0.507899
0.522959
0.501407
0.536127
0.436568
0.429448
0.436568
0.429448
0.436568
0.429448
0.436568
0.429448
0.430274
0.429982
0.462889
0.406188
0.416149
0.432947
0.489107
0.422636
0.49311
0.438389
0.404828
0.457863
0.439132
0.40418
0.457914
0.503675
0.503675
0.503675
0.503675
0.478707
0.412835
0.47798
0.420186
0.483926
0.41055
0.483926
0.41055
0.481404
0.406793
0.476704
0.399977
0.507513
0.435965
0.507513
0.435965
0.507513
0.455332
0.507513
0.455332
0.431519
0.501171
0.431519
0.501171
0.431519
0.501171
0.431519
0.501171
0.527245
0.493174
0.541584
0.541584
0.541584
0.541584
0.452875
0.452875
0.452875
0.452875
0.488874
0.446103
0.462224
0.399364
0.462224
0.399364
0.462224
0.399364
0.462224
0.399364
0.431299
0.47051
0.431299
0.47051
0.431299
0.47051
0.431299
0.47051
0.482837
0.456091
0.482837
0.456091
0.482837
0.456091
0.482837
0.456091
0.519003
0.476296
0.546569
0.471545
0.546569
0.471545
0.546569
0.471545
0.546569
0.471545
0.503367
0.499206
0.457306
0.503367
0.499206
0.457306
0.503367
0.499206
0.457306
0.503367
0.499206
0.457306
0.435994
0.421664
0.459049
0.413633
0.421345
0.375943
0.433159
0.414029
0.368022
0.420895
0.39953
0.492405
0.499968
0.492405
0.499968
0.492405
0.499968
0.492405
0.499968
0.509923
0.414142
0.43601
0.446091
0.43601
0.446091
0.43601
0.446091
0.43601
0.446091
0.45416
0.398837
0.390307
0.45416
0.398837
0.390307
0.45416
0.398837
0.390307
0.45416
0.398837
0.390307
0.543314
0.485733
0.502418
0.543314
0.485733
0.502418
0.5434
0.485669
0.502571
0.543314
0.485733
0.502418
0.520364
0.483653
0.503647
0.520364
0.483653
0.503647
0.520364
0.483653
0.503647
0.520364
0.483653
0.503647
0.491143
0.449677
0.444868
0.49361
0.416411
0.444868
0.49361
0.416411
0.444868
0.49361
0.416411
0.444868
0.49361
0.416411
0.519214
0.494741
0.46289
0.446386
0.450664
0.433752
0.446386
0.450664
0.433752
0.446386
0.450664
0.433752
0.446386
0.450664
0.433752
0.49845
0.41034
0.49845
0.41034
0.49845
0.41034
0.49845
0.41034
0.494951
0.512411
0.460869
0.442389
0.472515
0.494951
0.512411
0.460869
0.442389
0.472515
0.494951
0.512411
0.460869
0.442389
0.472515
0.494951
0.512411
0.460869
0.442389
0.472515
0.458022
0.37841
0.458022
0.37841
0.458022
0.37841
0.458022
0.37841
0.508357
0.495969
0.508357
0.495969
0.508357
0.495969
0.508357
0.495969
0.556226
0.490599
0.456073
0.556226
0.490599
0.456073
0.556226
0.490599
0.456073
0.556226
0.490599
0.456073
0.55411
0.496578
0.436147
0.55411
0.496578
0.436147
0.55411
0.496578
0.436147
0.55411
0.496578
0.436147
0.49783
0.414434
0.423615
0.50217
0.452899
0.414434
0.50217
0.423615
0.414434
0.50217
0.437718
0.414434
0.439209
0.439209
0.439209
0.439209
0.468473
0.468473
0.468473
0.468473
0.489317
0.451349
0.489317
0.451349
0.489317
0.451349
0.489317
0.451349
0.499482
0.455368
0.446646
0.403423
0.429169
0.476835
0.486686
0.476835
0.486686
0.451693
0.451693
0.476835
0.486686
0.451693
0.476835
0.486686
0.451693
0.504964
0.495856
0.463967
0.468817
0.468817
0.468817
0.468817
0.439858
0.469849
0.457147
0.488773
0.457147
0.488773
0.457147
0.488773
0.457147
0.488773
0.406073
0.479553
0.406073
0.479553
0.406073
0.479553
0.406073
0.479553
0.424963
0.424963
0.424963
0.424963
0.447989
0.434135
0.471323
0.447989
0.434135
0.471323
0.447989
0.434135
0.471323
0.447989
0.434135
0.471323
0.478897
0.478897
0.480494
0.480494
0.479157
0.527681
0.474156
0.462349
0.479157
0.527681
0.474156
0.462349
0.479157
0.527681
0.474156
0.462349
0.479157
0.527681
0.474156
0.462349
0.427141
0.495974
0.429408
0.45049
0.471599
0.495727
0.398685
0.460858
0.433775
0.491762
0.4781
0.491762
0.4781
0.491762
0.4781
0.491762
0.4781
0.39315
0.410169
0.390982
0.410586
0.387198
0.410042
0.384004
0.410241
0.514364
0.486272
0.514364
0.486272
0.514364
0.486272
0.514364
0.486272
0.439721
0.462153
0.439721
0.462153
0.440277
0.462308
0.439721
0.462153
0.519056
0.417946
0.443275
0.405934
0.507179
0.439785
0.507179
0.439785
0.507179
0.439785
0.507179
0.439785
0.448387
0.480289
0.426781
0.448387
0.480289
0.426781
0.448387
0.480289
0.426781
0.448387
0.480289
0.426781
0.565996
0.442337
0.50262
0.457746
0.435369
0.496855
0.490431
0.496855
0.490431
0.496855
0.490431
0.496855
0.490431
0.48588
0.491451
0.457714
0.48588
0.491451
0.457714
0.468903
0.491451
0.457778
0.481334
0.491451
0.457711
0.36817
0.36496
0.36817
0.36496
0.36817
0.36817
0.36496
0.36496
0.519331
0.43789
0.527172
0.519331
0.43789
0.527172
0.519331
0.43789
0.527172
0.519331
0.43789
0.527172
0.556532
0.430441
0.479254
0.556532
0.430441
0.479254
0.556532
0.430441
0.479254
0.556532
0.430441
0.479254
0.552009
0.475552
0.455942
0.455942
0.455942
0.455942
0.451488
0.431073
0.481829
0.5
0.5
0.5
0.5
0.491362
0.448524
0.418815
0.367577
0.490318
0.409391
0.456841
0.355379
0.368422
0.495334
0.368422
0.495334
0.368422
0.495334
0.368422
0.495334
0.393181
0.438097
0.503907
0.393181
0.438097
0.503907
0.393181
0.438097
0.503907
0.393181
0.438097
0.503907
0.481977
0.473635
0.435083
0.405862
0.409578
0.543211
0.472569
0.543211
0.472569
0.543211
0.472569
0.543211
0.472569
0.521821
0.462715
0.497402
0.424678
0.555504
0.452392
0.555504
0.452392
0.555504
0.452392
0.555504
0.452392
0.378656
0.441611
0.501323
0.404973
0.501323
0.404973
0.501323
0.405126
0.501323
0.405307
0.452079
0.51423
0.45069
0.515898
0.452171
0.513992
0.450952
0.51605
0.425814
0.543468
0.518749
0.427244
0.513237
0.42687
0.5189
0.427028
0.514654
0.426771
0.499763
0.469406
0.507772
0.414302
0.507772
0.414302
0.507772
0.414302
0.507772
0.414302
0.510144
0.455846
0.510144
0.455846
0.510144
0.455846
0.510144
0.455846
0.512908
0.441002
0.467214
0.540757
0.499988
0.492823
0.497942
0.439107
0.492823
0.497942
0.439107
0.492823
0.492823
0.497942
0.439107
0.497942
0.439107
0.489009
0.48222
0.487634
0.38738
0.38738
0.38738
0.38738
0.506616
0.51245
0.473887
0.51245
0.473887
0.51245
0.473887
0.51245
0.473887
0.463854
0.564284
0.473274
0.465111
0.559778
0.481706
0.463854
0.564286
0.473274
0.477371
0.557943
0.490216
0.43608
0.428929
0.464452
0.436081
0.428932
0.464451
0.437103
0.430059
0.445326
0.436155
0.426091
0.45372
0.496489
0.416296
0.503088
0.475814
0.464339
0.503088
0.475814
0.464339
0.503088
0.475814
0.464339
0.503088
0.475814
0.464339
0.486188
0.545672
0.486188
0.545672
0.478595
0.540611
0.4786
0.539253
0.474117
0.442587
0.459531
0.474117
0.442587
0.459531
0.52574
0.437488
0.474117
0.442587
0.459531
0.52574
0.437488
0.474117
0.442587
0.459531
0.52574
0.437488
0.52574
0.437488
0.495149
0.436636
0.501142
0.483495
0.452993
0.495149
0.436636
0.501142
0.495149
0.436636
0.501142
0.483495
0.452993
0.483495
0.452993
0.495149
0.436636
0.501142
0.483495
0.452993
0.531175
0.477584
0.476956
0.531175
0.477584
0.476956
0.531175
0.477584
0.476956
0.531175
0.477584
0.476956
0.509752
0.444691
0.509226
0.444693
0.509226
0.460185
0.510896
0.444911
0.510899
0.432493
0.473592
0.465921
0.453042
0.453042
0.453042
0.453042
0.523065
0.470053
0.474978
0.470034
0.463203
0.463203
0.46322
0.463189
0.447802
0.479555
0.53092
0.447802
0.479555
0.53092
0.450354
0.471545
0.526031
0.447802
0.479555
0.53092
0.48624
0.48624
0.48624
0.48624
0.465239
0.465239
0.465239
0.465239
0.451874
0.429188
0.441364
0.451874
0.429188
0.441364
0.449314
0.42818
0.43724
0.449314
0.42818
0.43724
0.491556
0.497091
0.491556
0.497091
0.491556
0.497091
0.491556
0.497091
0.464499
0.441268
0.488692
0.498877
0.475261
0.488692
0.498877
0.475261
0.488692
0.498877
0.475261
0.488692
0.498877
0.475261
0.517771
0.436241
0.463241
0.507577
0.485243
0.49987
0.49987
0.49987
0.49987
0.543518
0.551254
0.49262
0.465536
0.403984
0.51158
0.452257
0.406794
0.511526
0.452232
0.48331
0.407308
0.44442
0.482521
0.415701
0.433526
0.457742
0.457742
0.457742
0.457742
0.409498
0.478008
0.461394
0.478008
0.461394
0.478008
0.461394
0.478008
0.461394
0.408802
0.408802
0.408802
0.408802
0.461807
0.486247
0.461807
0.486247
0.464045
0.491689
0.454213
0.473446
0.558059
0.426894
0.485798
0.558059
0.426894
0.485798
0.558059
0.426894
0.485798
0.558059
0.426894
0.485798
0.524946
0.427839
0.466951
0.524946
0.427839
0.466951
0.524946
0.427839
0.466951
0.524946
0.427839
0.466951
0.52576
0.455382
0.52576
0.455382
0.52576
0.455382
0.52576
0.455382
0.495766
0.448652
0.495766
0.448652
0.495766
0.448652
0.495766
0.448652
0.488614
0.475653
0.416297
0.456659
0.418736
0.488614
0.475653
0.416297
0.456659
0.418736
0.488614
0.475653
0.416297
0.456659
0.418736
0.488614
0.475653
0.416297
0.456659
0.418736
0.435856
0.444472
0.435856
0.444472
0.435856
0.444472
0.435856
0.444472
0.501714
0.501714
0.501714
0.501714
0.495477
0.384031
0.471547
0.441147
0.381082
0.381082
0.381082
0.381082
0.510215
0.49139
0.510215
0.49139
0.510215
0.49139
0.510215
0.49139
0.484552
0.475279
0.415667
0.412661
0.484552
0.475279
0.415667
0.412661
0.484552
0.475279
0.415667
0.412661
0.484552
0.475279
0.415667
0.412661
0.537017
0.46404
0.410993
0.54884
0.481693
0.479229
0.458641
0.479229
0.458641
0.479229
0.458641
0.479229
0.458641
0.578146
0.491773
0.485385
0.463768
0.578146
0.491773
0.485385
0.463768
0.578146
0.491773
0.485385
0.463768
0.578146
0.491773
0.485385
0.463768
0.405922
0.491672
0.471578
0.406043
0.49119
0.479109
0.501831
0.419657
0.501831
0.419657
0.501831
0.419657
0.501831
0.419657
0.512102
0.416163
0.364032
0.444997
0.470605
0.444997
0.470605
0.444997
0.470605
0.444997
0.470605
0.428643
0.466014
0.435014
0.428735
0.466014
0.435004
0.433252
0.457863
0.448091
0.432595
0.456925
0.435008
0.498395
0.498395
0.495222
0.495222
0.458274
0.44392
0.421934
0.458274
0.44392
0.421934
0.458274
0.44392
0.421934
0.458274
0.44392
0.421934
0.519523
0.437089
0.518889
0.438143
0.496983
0.53686
0.47886
0.496983
0.53686
0.47886
0.496983
0.53686
0.47886
0.496983
0.53686
0.47886
0.466447
0.405483
0.466447
0.405483
0.466447
0.405483
0.466447
0.405483
0.486322
0.446396
0.442105
0.526839
0.502503
0.468629
0.401671
0.510666
0.501985
0.462482
0.405304
0.509907
0.502503
0.469436
0.393943
0.510666
0.374794
0.488557
0.374794
0.488557
0.374794
0.488557
0.374794
0.488557
0.464555
0.367821
0.464555
0.367821
0.464131
0.367761
0.464555
0.367821
0.467644
0.439003
0.467644
0.439003
0.467644
0.439003
0.467644
0.439003
0.473657
0.40918
0.473657
0.40921
0.466958
0.397301
0.473657
0.409207
0.476099
0.49965
0.481253
0.484555
0.501615
0.503471
0.488889
0.488889
0.488871
0.488889
0.533263
0.493702
0.387329
0.467683
0.396324
0.464915
0.506193
0.479109
0.461034
0.417993
0.392751
0.506193
0.479109
0.461109
0.418033
0.392751
0.440989
0.468999
0.48008
0.428914
0.422196
0.442587
0.47934
0.479981
0.428732
0.420659
0.424607
0.424607
0.424607
0.424607
0.459169
0.465454
0.459169
0.465454
0.459169
0.465454
0.459169
0.465454
0.441985
0.478409
0.457606
0.438437
0.405565
0.455688
0.50599
0.455688
0.50599
0.46234
0.468211
0.508248
0.457995
0.477017
0.502517
0.463055
0.400677
0.446267
0.51549
0.516332
0.464476
0.482068
0.516332
0.464476
0.482068
0.516332
0.464476
0.482068
0.516332
0.464476
0.482068
0.547103
0.466605
0.550969
0.465376
0.488416
0.445688
0.493069
0.486766
0.378942
0.473562
0.473562
0.473562
0.473562
0.496965
0.443811
0.479221
0.518934
0.455818
0.432733
0.483236
0.426872
0.496907
0.483143
0.422308
0.430515
0.469777
0.447442
0.442062
0.430515
0.469777
0.447442
0.442062
0.430515
0.469777
0.447442
0.442062
0.430515
0.469777
0.447442
0.442062
0.40563
0.40563
0.40563
0.40563
0.46218
0.466001
0.483629
0.514202
0.47064
0.514878
0.471845
0.467054
0.407752
0.467054
0.407752
0.467054
0.407752
0.467054
0.407752
0.506098
0.469653
0.549286
0.47057
0.441806
0.523012
0.461321
0.501808
0.488249
0.501808
0.488249
0.501808
0.488249
0.501808
0.488249
0.499961
0.450728
0.456088
0.475429
0.455324
0.455324
0.455324
0.455324
0.521574
0.475402
0.500175
0.482098
0.46945
0.417885
0.485192
0.41998
0.485192
0.41998
0.485192
0.41998
0.485192
0.41998
0.499441
0.468723
0.482963
0.521417
0.544257
0.444487
0.431499
0.444487
0.431499
0.444487
0.431499
0.444487
0.431499
0.49315
0.431702
0.49315
0.431702
0.49315
0.431702
0.49315
0.431702
0.505907
0.43586
0.399052
0.480206
0.461973
0.468176
0.461973
0.468176
0.461973
0.468176
0.461973
0.468176
0.465527
0.448429
0.465527
0.448429
0.465527
0.448429
0.465527
0.448429
0.520053
0.528379
0.50009
0.53723
0.500563
0.537177
0.493191
0.512127
0.49261
0.513358
0.446892
0.543486
0.496667
0.543486
0.496667
0.543486
0.496667
0.543486
0.496667
0.464413
0.464413
0.464413
0.464413
0.418233
0.396655
0.396655
0.396655
0.396655
0.419145
0.484578
0.425942
0.463419
0.419144
0.4846
0.435594
0.482829
0.486147
0.478823
0.581697
0.444799
0.581697
0.444799
0.581697
0.444799
0.581697
0.444799
0.497305
0.513362
0.608186
0.445099
0.608186
0.445099
0.608186
0.445099
0.608186
0.445099
0.496934
0.490001
0.51456
0.456088
0.478827
0.440591
0.49552
0.492438
0.456088
0.478828
0.448798
0.49552
0.492438
0.470075
0.435285
0.391033
0.516619
0.496212
0.481777
0.459643
0.439571
0.499807
0.490318
0.540898
0.459305
0.446284
0.540898
0.459305
0.446284
0.540898
0.459305
0.446284
0.540898
0.459305
0.446284
0.43967
0.429241
0.517176
0.409273
0.517176
0.409273
0.469315
0.419358
0.469315
0.419358
0.517176
0.409273
0.469315
0.419358
0.517176
0.409273
0.469315
0.419358
0.494536
0.470707
0.494536
0.470707
0.494536
0.470707
0.494536
0.470707
0.511437
0.456422
0.403839
0.469669
0.508023
0.5147
0.506043
0.465628
0.484614
0.506043
0.465628
0.484614
0.506043
0.465628
0.484614
0.506043
0.465628
0.484614
0.479744
0.479744
0.479744
0.479744
0.436365
0.508584
0.390539
0.508584
0.390539
0.508584
0.390539
0.508584
0.390539
0.474098
0.509615
0.474098
0.509615
0.474098
0.509615
0.474098
0.509615
0.521636
0.503057
0.521636
0.503057
0.521636
0.503057
0.521636
0.503057
0.484548
0.436605
0.484548
0.437458
0.475725
0.436239
0.484548
0.437345
0.37988
0.413247
0.413227
0.413227
0.413227
0.413227
0.479418
0.460244
0.489214
0.492808
0.489214
0.492808
0.489214
0.492808
0.489214
0.492808
0.465732
0.477477
0.439926
0.465732
0.477477
0.439926
0.482756
0.465732
0.477477
0.439926
0.482756
0.482756
0.465732
0.477477
0.439926
0.482756
0.494563
0.479132
0.494563
0.479132
0.494563
0.479132
0.494563
0.479132
0.451391
0.414408
0.487459
0.539941
0.453936
0.487459
0.539941
0.453936
0.487459
0.539941
0.453936
0.487459
0.539941
0.453936
0.479702
0.362823
0.420218
0.427047
0.420218
0.427047
0.420218
0.427047
0.420218
0.427047
0.45278
0.45278
0.45278
0.45278
0.519296
0.429834
0.519296
0.429834
0.519296
0.429834
0.519296
0.429834
0.458654
0.506433
0.47342
0.474561
0.474561
0.474561
0.474561
0.536681
0.498452
0.474699
0.478782
0.554556
0.42356
0.42993
0.554556
0.42356
0.42993
0.554556
0.42356
0.42993
0.554556
0.42356
0.42993
0.40585
0.40585
0.40585
0.40585
0.457941
0.473329
0.457941
0.473329
0.457265
0.480357
0.456328
0.480475
0.489097
0.364725
0.489097
0.364725
0.485957
0.364725
0.489097
0.364725
0.435277
0.466845
0.435277
0.466845
0.435288
0.46685
0.435288
0.46685
0.479236
0.479236
0.479236
0.479236
0.515888
0.510643
0.458504
0.458504
0.458504
0.458504
0.438117
0.475902
0.438117
0.475902
0.438117
0.475902
0.438117
0.475902
0.450771
0.457763
0.452451
0.457763
0.452451
0.457763
0.452451
0.457763
0.452451
0.455384
0.493562
0.469005
0.472822
0.469005
0.472822
0.469005
0.472822
0.469005
0.472822
0.501771
0.452104
0.569106
0.569106
0.569106
0.569106
0.43334
0.46202
0.43334
0.46202
0.43334
0.46202
0.43334
0.46202
0.481772
0.481772
0.481772
0.481772
0.462823
0.527163
0.462823
0.527163
0.462823
0.527163
0.462823
0.527163
0.470631
0.453778
0.459865
0.446362
0.495042
0.450889
0.459865
0.448087
0.478272
0.453399
0.486766
0.486766
0.486766
0.486766
0.530627
0.363072
0.530627
0.363072
0.530627
0.363072
0.530627
0.363072
0.473686
0.480588
0.417431
0.473686
0.480588
0.417431
0.473686
0.480588
0.417431
0.473686
0.480588
0.417431
0.524325
0.435854
0.524325
0.435852
0.530364
0.426883
0.524325
0.435849
0.489924
0.489924
0.489924
0.489924
0.429523
0.429523
0.429523
0.429523
0.481151
0.536304
0.507779
0.507779
0.507779
0.507779
0.469863
0.469863
0.469863
0.469863
0.43224
0.523573
0.440108
0.419078
0.515996
0.496899
0.507702
0.488309
0.484279
0.480963
0.484279
0.480963
0.484279
0.480963
0.484279
0.480963
0.52637
0.449751
0.437904
0.52637
0.449751
0.437904
0.52637
0.449751
0.437904
0.52637
0.449751
0.437904
0.487642
0.486121
0.476842
0.428454
0.415206
0.415206
0.415206
0.415206
0.522932
0.522932
0.522932
0.522932
0.532837
0.497036
0.449959
0.565396
0.453352
0.559811
0.559811
0.559811
0.559811
0.481224
0.461428
0.526235
0.398799
0.481224
0.461428
0.481224
0.461428
0.526235
0.398799
0.526235
0.398799
0.481224
0.461428
0.526235
0.398799
0.545796
0.503567
0.545796
0.503567
0.529661
0.487497
0.536304
0.49177
0.473014
0.562619
0.481181
0.562619
0.481181
0.562619
0.481181
0.562619
0.481181
0.460318
0.435263
0.460318
0.435263
0.460318
0.435263
0.460318
0.435263
0.487299
0.440113
0.487299
0.440113
0.487299
0.440113
0.487299
0.440113
0.484927
0.478662
0.475764
0.535408
0.372174
0.465057
0.372174
0.465057
0.372174
0.465057
0.372174
0.465057
0.447611
0.508219
0.4433
0.508714
0.508714
0.508714
0.508714
0.505884
0.500352
0.446239
0.438412
0.443181
0.431785
0.476821
0.432001
0.476821
0.432001
0.473821
0.427363
0.473673
0.427198
0.461703
0.389242
0.461703
0.389242
0.461703
0.389242
0.461703
0.389242
0.452903
0.428552
0.466609
0.431439
0.56117
0.414601
0.487352
0.462644
0.487352
0.462644
0.487352
0.462644
0.487352
0.462644
0.433947
0.433947
0.433947
0.433947
0.525233
0.486019
0.519707
0.511396
0.497778
0.52503
0.497779
0.525029
0.496327
0.52502
0.496356
0.527925
0.486196
0.492858
0.466132
0.447379
0.447379
0.447379
0.447379
0.514123
0.515764
0.515652
0.465463
0.465548
0.51326
0.461472
0.495243
0.477691
0.486037
0.462681
0.486037
0.462681
0.486037
0.462681
0.486037
0.462681
0.482427
0.408223
0.458364
0.458364
0.458417
0.458364
0.476466
0.488157
0.482812
0.523534
0.482812
0.488157
0.476466
0.488157
0.482812
0.476466
0.488157
0.482812
0.522349
0.445201
0.472957
0.472957
0.472877
0.472957
0.444415
0.442109
0.411355
0.447519
0.411355
0.447519
0.411355
0.447519
0.411355
0.447519
0.518761
0.473412
0.44284
0.457587
0.524477
0.49432
0.524477
0.49432
0.522389
0.474894
0.526496
0.48476
0.489036
0.489036
0.489036
0.489036
0.492491
0.422872
0.492491
0.422872
0.492491
0.422872
0.492491
0.422872
0.488776
0.401696
0.46456
0.480362
0.480362
0.480362
0.480362
0.465919
0.503682
0.449923
0.493381
0.456676
0.412457
0.516499
0.513821
0.412457
0.516499
0.513821
0.412457
0.516499
0.513821
0.412457
0.516499
0.513821
0.492889
0.397623
0.492849
0.39818
0.479463
0.401131
0.480058
0.401242
0.343087
0.343087
0.343087
0.343087
0.451877
0.513294
0.451877
0.513294
0.451877
0.513294
0.451877
0.513294
0.547199
0.492814
0.506248
0.509404
0.445448
0.444014
0.521565
0.503265
0.444014
0.521565
0.503265
0.444014
0.521565
0.503265
0.444014
0.521565
0.503265
0.420253
0.420253
0.426836
0.428501
0.434417
0.434417
0.434417
0.434417
0.479815
0.479815
0.479815
0.479815
0.571895
0.454651
0.428031
0.571895
0.45001
0.571895
0.452258
0.428031
0.428031
0.571895
0.45001
0.428031
0.499485
0.428717
0.499485
0.428717
0.499485
0.428717
0.499485
0.428717
0.551275
0.492683
0.551275
0.492683
0.551318
0.492691
0.551157
0.492691
0.392154
0.438987
0.537598
0.455496
0.493911
0.42034
0.42034
0.471951
0.45882
0.511435
0.511435
0.511435
0.511435
0.500475
0.46937
0.500475
0.46937
0.500467
0.469333
0.500467
0.469279
0.527766
0.440774
0.527766
0.440774
0.527766
0.440774
0.527766
0.440774
0.464449
0.464449
0.464449
0.464449
0.495585
0.470156
0.473355
0.577684
0.482894
0.481278
0.460813
0.471491
0.510488
0.494224
0.469448
0.494128
0.494128
0.494128
0.494128
0.426445
0.534683
0.433231
0.479643
0.433231
0.479643
0.433231
0.479643
0.433231
0.479643
0.434068
0.471384
0.434068
0.471384
0.434068
0.471384
0.434068
0.471384
0.482344
0.484096
0.465336
0.482344
0.484096
0.465336
0.482344
0.484096
0.465336
0.482344
0.484096
0.465336
0.44607
0.474218
0.517613
0.483562
0.486696
0.407432
0.407432
0.407432
0.407432
0.476248
0.497898
0.476248
0.497898
0.476248
0.497898
0.476248
0.497898
0.513717
0.489386
0.41732
0.513717
0.489386
0.41732
0.56033
0.489672
0.426127
0.551943
0.479431
0.415462
0.441025
0.441025
0.558975
0.441025
0.479249
0.529597
0.521788
0.406355
0.408179
0.487069
0.503177
0.487069
0.503177
0.487069
0.503177
0.487069
0.503177
0.479136
0.522357
0.522357
0.522357
0.522357
0.464504
0.464504
0.464504
0.464504
0.433179
0.433179
0.433179
0.433179
0.50142
0.50142
0.50142
0.50142
0.49083
0.526067
0.482955
0.526067
0.482955
0.526067
0.482955
0.526067
0.482955
0.440756
0.440849
0.439595
0.440909
0.481616
0.481616
0.481616
0.481616
0.498674
0.483723
0.452307
0.498674
0.483723
0.452307
0.498674
0.483723
0.452307
0.498674
0.483723
0.452307
0.480409
0.516508
0.480409
0.516508
0.480409
0.516508
0.480409
0.516508
0.52226
0.451532
0.524218
0.441037
0.455729
0.496051
0.533129
0.427747
0.427747
0.427747
0.427747
0.434654
0.535111
0.477733
0.525303
0.458519
0.395666
0.47502
0.439664
0.39587
0.475599
0.439294
0.395936
0.475605
0.439346
0.510677
0.498629
0.476324
0.495738
0.510677
0.498629
0.476324
0.495738
0.510677
0.498629
0.476324
0.495738
0.510677
0.498629
0.476324
0.495738
0.451871
0.511505
0.517901
0.511485
0.517305
0.507455
0.517295
0.567453
0.485117
0.567453
0.485117
0.567453
0.485117
0.567453
0.485117
0.520401
0.472953
0.408242
0.408242
0.408242
0.408242
0.4971
0.4971
0.462724
0.462724
0.462724
0.462724
0.4971
0.4971
0.504997
0.50494
0.50494
0.498038
0.498038
0.461499
0.466817
0.484947
0.465055
0.513846
0.463556
0.513846
0.463556
0.513846
0.463556
0.513846
0.463556
0.449164
0.389748
0.449164
0.389748
0.449164
0.389748
0.449164
0.389748
0.519519
0.519519
0.519519
0.519519
0.450671
0.452911
0.450671
0.452911
0.450671
0.452911
0.450671
0.452911
0.465035
0.482571
0.517807
0.517807
0.517807
0.517807
0.426197
0.426197
0.471989
0.471989
0.426197
0.426197
0.471989
0.471989
0.463843
0.429896
0.45816
0.435761
0.470559
0.497607
0.395682
0.489243
0.489243
0.489243
0.489243
0.403812
0.403812
0.403812
0.403812
0.523507
0.523507
0.523507
0.523507
0.587217
0.494702
0.516557
0.478494
0.425716
0.505955
0.403547
0.505955
0.403547
0.505955
0.403547
0.505955
0.403547
0.480087
0.480087
0.480087
0.480087
0.516801
0.452288
0.516801
0.452288
0.516801
0.452288
0.516801
0.452288
0.471649
0.442101
0.409999
0.46841
0.442101
0.409999
0.46841
0.437714
0.41707
0.492418
0.437714
0.416964
0.492418
0.515978
0.492465
0.515978
0.492465
0.515978
0.492465
0.515978
0.492465
0.484754
0.434742
0.513213
0.49394
0.490425
0.417643
0.551532
0.446695
0.517227
0.517227
0.517227
0.517227
0.541139
0.441143
0.501704
0.503634
0.442749
0.442749
0.442749
0.442749
0.487006
0.521695
0.430179
0.402045
0.560025
0.510124
0.560025
0.510124
0.560025
0.510124
0.560025
0.510124
0.471378
0.471378
0.471378
0.471378
0.50421
0.50421
0.50421
0.50421
0.491976
0.476818
0.522478
0.454845
0.465069
0.480482
0.46006
0.480482
0.46006
0.480482
0.46006
0.480482
0.46006
0.501972
0.483628
0.501972
0.483628
0.501972
0.483628
0.501972
0.483628
0.517665
0.537077
0.499215
0.549576
0.495863
0.500335
0.500335
0.500335
0.500335
0.416829
0.434592
0.462714
0.454727
0.47761
0.427319
0.52209
0.52209
0.52209
0.52209
0.533841
0.485888
0.533841
0.485888
0.544594
0.49416
0.544544
0.49491
0.481416
0.481416