/*--------------------------------*- C++ -*----------------------------------*\
| =========                 |                                                 |
| \\      /  F ield         | OpenFOAM: The Open Source CFD Toolbox           |
|  \\    /   O peration     | Version:  v2106                                 |
|   \\  /    A nd           | Website:  www.openfoam.com                      |
|    \\/     M anipulation  |                                                 |
\*---------------------------------------------------------------------------*/
FoamFile
{
    version     2.0;
    format      ascii;
    arch        "LSB;label=32;scalar=64";
    class       volScalarField;
    location    "constant";
    object      minPyrVolume;
}
// * * * * * * * * * * * * * * * * * * * * * * * * * * * * * * * * * * * * * //

dimensions      [0 0 0 0 0 0 0];

internalField   nonuniform List<scalar> 
2658
(
7.71373e-06
7.71373e-06
7.71373e-06
7.71373e-06
7.71373e-06
7.71373e-06
7.71373e-06
7.71373e-06
7.71373e-06
7.71373e-06
7.71373e-06
7.71373e-06
7.71373e-06
7.71373e-06
7.71373e-06
7.71373e-06
7.71373e-06
7.71373e-06
7.71373e-06
7.71373e-06
7.71373e-06
7.71373e-06
7.71373e-06
7.71373e-06
7.71373e-06
7.71373e-06
7.71373e-06
7.71373e-06
7.71373e-06
7.71373e-06
7.71373e-06
7.71373e-06
7.71373e-06
7.71373e-06
7.71373e-06
7.71373e-06
7.71373e-06
7.71373e-06
7.71373e-06
7.71373e-06
7.71373e-06
7.71373e-06
7.71373e-06
7.71373e-06
7.71373e-06
7.71373e-06
7.71373e-06
7.71373e-06
7.71373e-06
7.71373e-06
7.71373e-06
7.71373e-06
7.71373e-06
7.71373e-06
7.71373e-06
7.71373e-06
7.71373e-06
7.71373e-06
7.71373e-06
7.71373e-06
7.71373e-06
7.71373e-06
7.71373e-06
7.71373e-06
7.71373e-06
7.71373e-06
7.71373e-06
7.71373e-06
7.71373e-06
7.71373e-06
7.71373e-06
7.71373e-06
7.71373e-06
7.71373e-06
7.71373e-06
7.71373e-06
7.71373e-06
7.71373e-06
7.71373e-06
7.71373e-06
7.71373e-06
7.71373e-06
7.71373e-06
7.71373e-06
7.71373e-06
7.71373e-06
7.71373e-06
7.71373e-06
7.71373e-06
7.71373e-06
7.71373e-06
7.71373e-06
7.71373e-06
7.71373e-06
7.71373e-06
7.71373e-06
7.71373e-06
7.71373e-06
7.71373e-06
7.71373e-06
7.71373e-06
7.71373e-06
7.71373e-06
7.71373e-06
7.71373e-06
7.71373e-06
7.71373e-06
7.71373e-06
7.71373e-06
7.71373e-06
7.71373e-06
7.71373e-06
7.71373e-06
7.71373e-06
7.71373e-06
7.71373e-06
7.71373e-06
7.71373e-06
7.71373e-06
7.71373e-06
7.71373e-06
7.71373e-06
7.71373e-06
7.71373e-06
7.71373e-06
7.71373e-06
7.71373e-06
7.71373e-06
7.71373e-06
7.71373e-06
7.71373e-06
7.71373e-06
7.71373e-06
7.71373e-06
7.71373e-06
7.71373e-06
7.71373e-06
7.71373e-06
7.71373e-06
7.71373e-06
7.71373e-06
7.71373e-06
7.71373e-06
7.71373e-06
7.71373e-06
7.71373e-06
7.71373e-06
7.71373e-06
7.71373e-06
7.71373e-06
7.71373e-06
7.71373e-06
7.71373e-06
7.71373e-06
7.71373e-06
7.71373e-06
7.71373e-06
7.71373e-06
7.71373e-06
7.71373e-06
7.71373e-06
7.71373e-06
7.71373e-06
7.71373e-06
6.60516e-06
7.71373e-06
7.71373e-06
7.71373e-06
7.71373e-06
7.71373e-06
7.71373e-06
7.71373e-06
7.71373e-06
7.71373e-06
7.71373e-06
7.71373e-06
7.71373e-06
7.71373e-06
7.71373e-06
7.71373e-06
7.71373e-06
7.71373e-06
7.71373e-06
7.71373e-06
7.71373e-06
7.71373e-06
7.71373e-06
7.71373e-06
7.71373e-06
7.71373e-06
6.7379e-06
6.7379e-06
6.73308e-06
6.73308e-06
7.71373e-06
7.71373e-06
7.71373e-06
7.71373e-06
7.71373e-06
7.71373e-06
7.71373e-06
7.71373e-06
7.71373e-06
7.71373e-06
7.71373e-06
7.71373e-06
7.71373e-06
7.71373e-06
7.71373e-06
7.71373e-06
7.71373e-06
7.71373e-06
7.71373e-06
7.71373e-06
7.71373e-06
7.71373e-06
7.71373e-06
7.71373e-06
7.71373e-06
7.71373e-06
7.71373e-06
7.71373e-06
7.71373e-06
7.71373e-06
7.71373e-06
7.71373e-06
7.71373e-06
7.71373e-06
7.71373e-06
7.71373e-06
7.71373e-06
7.71373e-06
7.58567e-06
7.58567e-06
7.58567e-06
7.58567e-06
7.71373e-06
7.71373e-06
7.71373e-06
7.71373e-06
7.71373e-06
7.71373e-06
7.71373e-06
7.71373e-06
7.71373e-06
7.71373e-06
6.8811e-06
6.03885e-06
7.71373e-06
7.71373e-06
7.71373e-06
7.71373e-06
6.27799e-06
7.71373e-06
7.71373e-06
7.71373e-06
7.71373e-06
7.71373e-06
7.71373e-06
7.71373e-06
7.71373e-06
7.71373e-06
7.71373e-06
7.71373e-06
7.71373e-06
7.71373e-06
7.71373e-06
6.18831e-06
6.18831e-06
6.18831e-06
6.18831e-06
7.71373e-06
7.71373e-06
7.71373e-06
7.71373e-06
6.30315e-06
7.71373e-06
7.71373e-06
7.71373e-06
7.71373e-06
7.71373e-06
7.71373e-06
7.71373e-06
7.71373e-06
6.36899e-06
7.71373e-06
7.71373e-06
7.71373e-06
7.71373e-06
7.71373e-06
7.71373e-06
7.71373e-06
7.71373e-06
7.71373e-06
7.71373e-06
7.4651e-06
7.4651e-06
7.4651e-06
7.4651e-06
7.71373e-06
7.71373e-06
7.71373e-06
7.71373e-06
7.71373e-06
7.71373e-06
7.71373e-06
7.71373e-06
7.71373e-06
7.71373e-06
7.71373e-06
7.71373e-06
7.71373e-06
7.71373e-06
7.71373e-06
7.71373e-06
7.71373e-06
7.71373e-06
7.71373e-06
7.71373e-06
7.71373e-06
7.71373e-06
7.71373e-06
7.71373e-06
7.71373e-06
7.71373e-06
7.71373e-06
7.71373e-06
7.71373e-06
7.71373e-06
7.71373e-06
7.71373e-06
7.71373e-06
7.71373e-06
7.71373e-06
7.71373e-06
7.24146e-06
7.71373e-06
7.71373e-06
7.71373e-06
7.71373e-06
7.71373e-06
7.71373e-06
7.71373e-06
7.71373e-06
7.71373e-06
7.71373e-06
7.71373e-06
7.71373e-06
7.71373e-06
7.71373e-06
7.71373e-06
7.71373e-06
7.71373e-06
7.71373e-06
7.71373e-06
7.71373e-06
7.71373e-06
7.71373e-06
7.71373e-06
7.71373e-06
7.71373e-06
7.71373e-06
7.71373e-06
7.71373e-06
7.71373e-06
7.71373e-06
7.71373e-06
7.71373e-06
7.71373e-06
7.71373e-06
7.71373e-06
7.71373e-06
7.71373e-06
7.71373e-06
7.71373e-06
7.71373e-06
7.71373e-06
7.71373e-06
7.71373e-06
7.71373e-06
7.71373e-06
7.71373e-06
7.71373e-06
7.71373e-06
7.71373e-06
7.71373e-06
7.71373e-06
7.71373e-06
7.71373e-06
7.71373e-06
7.71373e-06
7.71373e-06
7.71373e-06
7.71373e-06
7.71373e-06
7.71373e-06
7.71373e-06
7.71373e-06
7.71373e-06
7.71373e-06
7.71373e-06
7.71373e-06
7.71373e-06
7.71373e-06
7.71373e-06
7.71373e-06
7.71373e-06
7.71373e-06
7.71373e-06
7.71373e-06
7.71373e-06
7.71373e-06
7.71373e-06
7.71373e-06
7.71373e-06
7.71373e-06
7.71373e-06
7.71373e-06
7.71373e-06
7.71373e-06
7.71373e-06
7.71373e-06
7.71373e-06
7.71373e-06
7.71373e-06
7.71373e-06
7.71373e-06
7.71373e-06
7.71373e-06
7.51128e-06
7.71373e-06
7.71373e-06
7.71373e-06
7.71373e-06
7.71373e-06
7.71373e-06
7.71373e-06
7.71373e-06
7.71373e-06
7.71373e-06
7.71373e-06
7.71373e-06
7.71373e-06
7.71373e-06
7.71373e-06
7.71373e-06
7.71373e-06
7.71373e-06
7.71373e-06
7.71373e-06
7.71373e-06
7.71373e-06
7.71373e-06
7.71373e-06
7.71373e-06
7.71373e-06
7.71373e-06
7.71373e-06
7.71373e-06
7.71373e-06
7.71373e-06
7.71373e-06
7.71373e-06
7.71373e-06
7.71373e-06
7.71373e-06
7.71373e-06
7.71373e-06
7.71373e-06
7.71373e-06
7.71373e-06
7.71373e-06
7.71373e-06
7.71373e-06
7.49574e-06
7.71373e-06
7.71373e-06
7.50383e-06
7.50383e-06
7.50383e-06
7.50383e-06
7.71373e-06
7.71373e-06
7.71373e-06
7.71373e-06
7.24345e-06
7.24345e-06
7.24345e-06
7.24345e-06
7.71373e-06
7.71373e-06
7.71373e-06
7.71373e-06
7.71373e-06
7.71373e-06
7.71373e-06
7.71373e-06
7.71373e-06
7.71373e-06
7.71373e-06
7.71373e-06
7.71373e-06
7.71373e-06
7.71373e-06
7.71373e-06
7.71373e-06
7.71373e-06
7.71373e-06
7.71373e-06
7.71373e-06
7.71373e-06
7.71373e-06
7.71373e-06
7.71373e-06
7.71373e-06
7.71373e-06
7.71373e-06
7.71373e-06
7.71373e-06
7.71373e-06
7.71373e-06
7.71373e-06
7.71373e-06
7.71373e-06
7.71373e-06
7.71373e-06
7.71373e-06
7.71373e-06
7.71373e-06
7.71373e-06
7.71373e-06
7.71373e-06
7.71373e-06
7.71373e-06
7.71373e-06
7.71373e-06
7.71373e-06
7.71373e-06
7.71373e-06
7.71373e-06
7.71373e-06
7.71373e-06
7.71373e-06
7.71373e-06
7.71373e-06
7.71373e-06
7.71373e-06
7.71373e-06
7.71373e-06
7.71373e-06
7.71373e-06
6.42669e-06
7.71373e-06
7.71373e-06
7.71373e-06
7.71373e-06
7.71373e-06
7.71373e-06
7.71373e-06
7.71373e-06
7.71373e-06
7.71373e-06
7.71373e-06
7.71373e-06
7.71373e-06
7.71373e-06
7.71373e-06
7.71373e-06
7.71373e-06
7.71373e-06
7.71373e-06
7.71373e-06
7.71373e-06
7.71373e-06
7.71373e-06
7.71373e-06
7.71373e-06
7.71373e-06
7.71373e-06
7.71373e-06
7.71373e-06
7.71373e-06
7.71373e-06
7.71373e-06
7.71373e-06
7.71373e-06
7.03399e-06
7.4068e-06
7.71373e-06
7.71373e-06
7.71373e-06
7.71373e-06
7.71373e-06
7.71373e-06
7.71373e-06
7.71373e-06
7.71373e-06
7.71373e-06
7.71373e-06
7.71373e-06
7.71373e-06
7.71373e-06
7.71373e-06
7.71373e-06
7.71373e-06
7.71373e-06
6.58744e-06
6.58744e-06
6.58744e-06
6.58744e-06
7.45402e-06
7.34257e-06
7.45402e-06
7.02847e-06
7.71373e-06
7.71373e-06
7.71373e-06
7.71373e-06
6.2802e-06
7.71373e-06
7.71373e-06
7.71373e-06
7.71373e-06
6.81537e-06
6.81537e-06
6.95582e-06
6.99393e-06
7.71373e-06
7.71373e-06
7.71373e-06
7.71373e-06
7.71373e-06
7.71373e-06
7.71373e-06
7.71373e-06
7.71373e-06
7.71373e-06
7.71373e-06
7.71373e-06
7.71373e-06
7.71373e-06
7.71373e-06
7.71373e-06
7.71373e-06
7.71373e-06
7.71373e-06
7.71373e-06
7.00097e-06
7.71373e-06
7.71373e-06
7.71373e-06
7.71373e-06
7.65417e-06
7.71373e-06
7.71373e-06
7.71373e-06
7.71373e-06
7.71373e-06
7.71373e-06
7.23591e-06
7.23591e-06
7.23479e-06
7.23795e-06
7.71373e-06
7.71373e-06
7.71373e-06
7.71373e-06
7.63895e-06
7.63895e-06
7.63895e-06
7.63895e-06
7.71373e-06
7.71373e-06
7.71373e-06
7.71373e-06
7.71373e-06
7.71373e-06
7.71373e-06
7.71373e-06
7.71373e-06
7.71373e-06
7.71373e-06
7.71373e-06
7.71373e-06
7.71373e-06
7.71373e-06
7.71373e-06
7.71373e-06
7.71373e-06
7.71373e-06
7.71373e-06
7.71373e-06
7.71373e-06
7.71373e-06
7.71373e-06
7.71373e-06
7.71373e-06
7.71373e-06
5.64105e-06
6.90357e-06
7.71373e-06
7.71373e-06
7.71373e-06
7.71373e-06
7.71373e-06
7.71373e-06
7.71373e-06
7.71373e-06
7.71373e-06
7.71373e-06
7.71373e-06
7.71373e-06
7.71373e-06
7.71373e-06
7.71373e-06
7.71373e-06
7.71373e-06
7.71373e-06
7.71373e-06
7.71373e-06
7.71373e-06
7.71373e-06
7.71373e-06
7.71373e-06
7.71373e-06
7.71373e-06
7.71373e-06
7.71373e-06
7.71373e-06
7.71373e-06
7.71373e-06
7.71373e-06
7.71373e-06
7.71373e-06
7.71373e-06
7.71373e-06
7.71373e-06
7.71373e-06
7.71373e-06
7.71373e-06
7.71373e-06
7.71373e-06
7.71373e-06
7.71373e-06
7.71373e-06
7.71373e-06
7.71373e-06
7.71373e-06
7.71373e-06
7.71373e-06
7.71373e-06
7.71373e-06
7.71373e-06
7.71373e-06
7.71373e-06
7.71373e-06
7.71373e-06
7.71373e-06
7.71373e-06
7.71373e-06
7.71373e-06
7.71373e-06
7.71373e-06
7.71373e-06
7.71373e-06
7.71373e-06
7.71373e-06
7.71373e-06
7.71373e-06
7.71373e-06
7.71373e-06
7.71373e-06
7.71373e-06
7.71373e-06
7.71373e-06
7.71373e-06
7.71373e-06
7.67195e-06
7.67195e-06
7.67195e-06
7.67195e-06
7.26056e-06
7.71373e-06
7.26056e-06
7.71373e-06
7.26056e-06
7.71373e-06
7.26056e-06
7.71373e-06
7.71373e-06
7.71373e-06
7.71373e-06
7.71373e-06
7.71373e-06
7.71373e-06
7.71373e-06
7.71373e-06
7.71373e-06
7.71373e-06
7.71373e-06
7.71373e-06
7.71373e-06
7.71373e-06
7.71373e-06
7.71373e-06
7.71373e-06
7.71373e-06
7.70456e-06
7.71373e-06
7.71373e-06
7.71373e-06
7.71373e-06
7.71373e-06
7.71373e-06
7.71373e-06
7.71373e-06
7.71373e-06
6.23128e-06
6.24649e-06
7.71373e-06
7.71373e-06
7.71373e-06
7.71373e-06
7.71373e-06
7.71373e-06
7.71373e-06
7.71373e-06
7.71373e-06
7.71373e-06
7.71373e-06
7.71373e-06
7.71373e-06
7.71373e-06
7.71373e-06
7.71373e-06
7.71373e-06
7.71373e-06
7.71373e-06
7.71373e-06
7.71373e-06
7.71373e-06
7.71373e-06
7.71373e-06
7.71373e-06
7.71373e-06
7.71373e-06
7.71373e-06
7.71373e-06
7.71373e-06
7.71373e-06
7.71373e-06
7.71373e-06
7.71373e-06
7.71373e-06
7.71373e-06
7.71373e-06
7.71373e-06
7.71373e-06
6.8224e-06
6.49212e-06
7.71373e-06
7.71373e-06
7.71373e-06
7.71373e-06
7.71373e-06
7.71373e-06
7.71373e-06
7.71373e-06
7.71373e-06
7.71373e-06
7.71373e-06
7.71373e-06
7.71373e-06
7.71373e-06
7.71373e-06
7.71373e-06
7.71373e-06
7.71373e-06
7.71373e-06
7.71373e-06
7.70316e-06
6.44895e-06
7.70316e-06
7.42486e-06
6.38471e-06
6.44895e-06
7.5974e-06
6.41981e-06
7.06242e-06
7.23788e-06
5.83318e-06
7.71373e-06
7.71373e-06
7.71373e-06
7.71373e-06
5.53104e-06
5.5959e-06
6.77122e-06
7.33292e-06
7.71373e-06
7.71373e-06
7.71373e-06
7.71373e-06
7.71373e-06
7.71373e-06
7.71373e-06
7.71373e-06
7.71373e-06
7.71373e-06
7.71373e-06
7.71373e-06
7.71373e-06
7.71373e-06
7.71373e-06
7.71373e-06
7.71373e-06
7.71373e-06
7.71373e-06
7.71373e-06
7.71373e-06
7.71373e-06
7.71373e-06
7.30948e-06
7.28907e-06
7.71373e-06
7.71373e-06
7.71373e-06
7.71373e-06
6.71662e-06
7.71373e-06
7.71373e-06
7.38232e-06
7.5518e-06
7.5518e-06
7.5518e-06
7.5518e-06
7.18739e-06
6.72695e-06
7.30279e-06
7.30279e-06
7.30279e-06
7.30279e-06
7.71373e-06
7.71373e-06
7.71373e-06
7.71373e-06
7.71373e-06
7.71373e-06
7.71373e-06
7.23811e-06
6.5372e-06
6.92965e-06
7.71373e-06
7.71373e-06
7.71373e-06
7.71373e-06
7.71373e-06
7.71373e-06
7.71373e-06
7.71373e-06
7.4301e-06
7.71373e-06
7.71373e-06
7.71373e-06
7.71373e-06
7.71373e-06
7.71373e-06
7.71373e-06
7.71373e-06
7.71373e-06
7.71373e-06
7.71373e-06
5.80259e-06
5.80476e-06
5.88978e-06
5.89687e-06
7.71373e-06
6.2265e-06
6.2265e-06
6.2265e-06
6.2265e-06
7.71373e-06
7.71373e-06
7.71373e-06
7.71373e-06
7.71373e-06
7.71373e-06
7.71373e-06
7.71373e-06
7.71373e-06
7.71373e-06
7.71373e-06
7.71373e-06
7.71373e-06
7.66291e-06
7.71373e-06
7.71373e-06
7.71373e-06
7.71373e-06
6.0512e-06
7.71373e-06
7.71373e-06
7.71373e-06
7.71373e-06
7.71373e-06
7.71373e-06
7.71373e-06
7.71373e-06
7.71373e-06
7.71373e-06
7.71373e-06
7.71373e-06
7.71373e-06
7.71373e-06
7.71373e-06
7.71373e-06
7.71373e-06
7.71373e-06
7.71373e-06
6.5089e-06
7.71373e-06
7.71373e-06
7.71373e-06
7.71373e-06
7.71373e-06
7.71373e-06
7.71373e-06
7.71373e-06
7.71373e-06
7.71373e-06
7.71373e-06
7.71373e-06
7.71373e-06
6.82988e-06
5.99922e-06
7.71373e-06
7.71373e-06
7.71373e-06
7.71373e-06
7.71373e-06
7.71373e-06
7.71373e-06
7.71373e-06
7.71373e-06
7.71373e-06
7.71373e-06
7.71373e-06
7.71373e-06
7.71373e-06
7.71373e-06
6.42239e-06
6.42239e-06
6.42239e-06
6.42239e-06
7.13346e-06
7.13346e-06
7.13346e-06
7.13346e-06
7.71373e-06
7.71373e-06
7.71373e-06
7.71373e-06
7.71373e-06
7.71373e-06
7.71373e-06
7.71373e-06
7.71373e-06
7.71373e-06
7.71373e-06
7.71373e-06
7.71373e-06
7.39084e-06
7.71373e-06
7.71373e-06
7.71373e-06
7.71373e-06
7.71373e-06
7.71373e-06
7.71373e-06
7.71373e-06
7.71373e-06
7.71373e-06
7.71373e-06
7.71373e-06
7.71373e-06
7.71373e-06
7.71373e-06
7.71373e-06
6.91711e-06
7.71373e-06
7.71373e-06
7.71373e-06
7.71373e-06
7.71373e-06
7.71373e-06
7.71373e-06
7.71373e-06
7.71373e-06
7.71373e-06
7.71373e-06
7.71373e-06
7.71373e-06
7.71373e-06
7.71373e-06
7.71373e-06
7.71373e-06
7.71373e-06
5.83733e-06
7.71373e-06
7.71373e-06
7.71373e-06
7.71373e-06
6.77893e-06
7.4344e-06
7.71373e-06
7.71373e-06
7.71373e-06
7.71373e-06
7.71373e-06
7.71373e-06
7.71373e-06
7.71373e-06
7.71373e-06
7.71373e-06
6.74998e-06
6.74998e-06
6.50689e-06
6.50755e-06
7.71373e-06
7.71373e-06
7.71373e-06
7.71373e-06
7.71373e-06
7.71373e-06
7.71373e-06
7.71373e-06
7.71373e-06
7.71373e-06
7.71373e-06
7.71373e-06
7.71373e-06
7.71373e-06
7.71373e-06
7.71373e-06
7.71373e-06
7.71373e-06
7.71373e-06
7.71373e-06
7.71373e-06
7.71373e-06
7.71373e-06
7.71373e-06
7.71373e-06
7.71373e-06
7.71373e-06
7.71373e-06
7.71373e-06
7.71373e-06
7.71373e-06
7.71373e-06
7.71373e-06
7.0255e-06
7.71373e-06
7.0255e-06
7.0255e-06
7.71373e-06
7.71373e-06
7.0255e-06
7.71373e-06
7.71373e-06
7.71373e-06
7.71373e-06
7.71373e-06
7.71373e-06
7.71373e-06
7.71373e-06
7.71373e-06
7.05995e-06
7.05995e-06
7.05995e-06
7.05995e-06
7.71373e-06
7.71373e-06
7.71373e-06
7.71373e-06
7.71373e-06
7.71373e-06
7.71373e-06
7.71373e-06
7.71373e-06
7.71373e-06
7.71373e-06
7.71373e-06
7.71373e-06
7.71373e-06
7.71373e-06
7.71373e-06
7.71373e-06
7.71373e-06
7.71373e-06
7.71373e-06
7.71373e-06
7.71373e-06
7.71373e-06
7.71373e-06
7.71373e-06
7.71373e-06
7.71373e-06
7.71373e-06
7.71373e-06
7.71373e-06
7.71373e-06
7.71373e-06
7.71373e-06
7.71373e-06
7.71373e-06
7.71373e-06
7.71373e-06
7.71373e-06
7.71373e-06
7.71373e-06
7.71373e-06
7.71373e-06
7.71373e-06
7.71373e-06
7.71373e-06
7.71373e-06
7.71373e-06
7.71373e-06
7.71373e-06
6.88622e-06
7.22975e-06
7.22975e-06
7.22975e-06
7.22975e-06
6.80178e-06
6.80178e-06
6.80178e-06
6.80178e-06
7.71373e-06
7.71373e-06
7.71373e-06
7.71373e-06
7.38852e-06
7.71114e-06
7.70041e-06
6.13459e-06
6.13459e-06
6.13459e-06
6.13459e-06
7.71373e-06
7.71373e-06
7.71373e-06
7.71373e-06
7.71373e-06
7.71373e-06
7.71373e-06
7.71373e-06
7.71373e-06
7.71373e-06
7.71373e-06
6.08274e-06
6.08274e-06
6.08274e-06
6.08274e-06
7.24903e-06
7.71373e-06
6.18206e-06
6.18206e-06
6.18206e-06
6.18206e-06
7.71373e-06
7.71373e-06
7.71373e-06
7.71373e-06
7.71373e-06
7.71373e-06
7.71373e-06
7.71373e-06
7.71373e-06
7.71373e-06
7.71373e-06
7.71373e-06
7.71373e-06
6.66751e-06
6.66751e-06
6.66751e-06
6.66751e-06
7.71373e-06
7.71373e-06
7.71373e-06
7.71373e-06
7.71373e-06
7.71373e-06
7.71373e-06
7.71373e-06
7.40093e-06
7.71373e-06
7.71373e-06
7.71373e-06
7.71373e-06
7.71373e-06
7.71373e-06
7.71373e-06
7.71373e-06
7.71373e-06
7.71373e-06
7.71373e-06
7.71373e-06
7.71373e-06
7.08609e-06
7.08609e-06
7.17613e-06
7.17613e-06
7.71373e-06
7.71373e-06
7.71373e-06
7.71373e-06
7.71373e-06
7.71373e-06
7.71373e-06
7.71373e-06
7.71373e-06
7.71373e-06
7.71373e-06
7.71373e-06
7.71373e-06
7.71373e-06
7.71373e-06
7.71373e-06
7.71373e-06
7.71373e-06
7.71373e-06
7.71373e-06
7.48385e-06
7.28235e-06
7.02815e-06
7.02816e-06
7.03022e-06
6.94692e-06
7.71373e-06
7.71373e-06
7.71373e-06
7.71373e-06
7.71373e-06
7.71373e-06
6.81057e-06
7.71373e-06
7.71373e-06
6.87969e-06
7.34213e-06
7.71373e-06
7.71373e-06
7.71373e-06
7.71373e-06
7.71373e-06
7.60776e-06
7.71373e-06
7.71373e-06
7.71373e-06
7.71373e-06
7.71373e-06
7.30172e-06
7.30172e-06
7.71373e-06
7.71373e-06
7.30172e-06
7.71373e-06
7.30172e-06
7.20649e-06
7.50712e-06
7.50712e-06
7.52948e-06
7.50712e-06
7.5617e-06
7.71373e-06
7.71373e-06
7.71373e-06
7.71373e-06
7.71373e-06
7.71373e-06
7.71373e-06
7.71373e-06
7.71373e-06
7.71373e-06
7.71373e-06
7.71373e-06
7.71373e-06
7.71373e-06
7.71373e-06
7.71373e-06
7.71373e-06
7.71373e-06
7.65669e-06
7.71373e-06
7.71373e-06
7.71373e-06
7.71373e-06
7.58611e-06
7.58611e-06
7.58611e-06
7.58611e-06
7.71373e-06
7.71373e-06
6.39589e-06
7.71373e-06
7.71373e-06
7.71373e-06
7.71373e-06
7.71373e-06
7.71373e-06
7.71373e-06
7.71373e-06
7.71373e-06
7.71373e-06
7.71373e-06
7.71373e-06
7.71373e-06
7.71373e-06
7.71373e-06
7.71373e-06
7.71373e-06
7.71373e-06
7.71373e-06
7.71373e-06
7.71373e-06
7.71373e-06
7.71373e-06
7.71373e-06
7.71373e-06
7.06917e-06
7.71373e-06
7.42982e-06
7.71373e-06
7.42982e-06
7.71373e-06
7.42982e-06
7.71373e-06
7.42982e-06
7.71373e-06
7.71373e-06
7.71373e-06
7.71373e-06
6.94233e-06
6.94233e-06
6.94233e-06
6.94233e-06
7.71373e-06
7.71373e-06
7.71373e-06
7.71373e-06
7.71373e-06
7.71373e-06
7.71373e-06
7.71373e-06
7.71373e-06
7.71373e-06
7.71373e-06
7.71373e-06
7.44133e-06
7.44133e-06
7.44133e-06
7.44133e-06
7.71373e-06
7.71373e-06
7.71373e-06
7.71373e-06
6.19783e-06
6.19783e-06
6.19718e-06
6.19718e-06
7.71373e-06
7.27951e-06
7.20804e-06
7.71373e-06
7.71373e-06
7.71373e-06
7.71373e-06
6.71739e-06
6.71739e-06
6.71739e-06
6.71739e-06
7.19255e-06
7.19255e-06
7.19276e-06
7.19276e-06
7.71373e-06
7.71373e-06
7.71373e-06
7.71373e-06
7.71373e-06
7.71373e-06
7.71373e-06
7.71373e-06
7.71373e-06
7.71373e-06
7.71373e-06
7.29744e-06
7.71373e-06
7.34853e-06
7.71373e-06
6.53644e-06
6.53644e-06
6.53644e-06
6.53644e-06
7.19935e-06
7.19935e-06
7.19935e-06
7.19935e-06
7.71373e-06
7.71373e-06
7.71373e-06
7.71373e-06
7.71373e-06
7.71373e-06
7.71373e-06
7.71373e-06
7.71373e-06
7.71373e-06
7.71373e-06
7.41273e-06
7.71373e-06
7.41273e-06
7.71373e-06
7.41273e-06
7.71373e-06
7.41273e-06
7.1636e-06
7.71373e-06
7.71373e-06
7.71373e-06
7.71373e-06
7.71373e-06
7.71373e-06
7.71373e-06
7.71373e-06
7.71373e-06
7.71373e-06
7.71373e-06
7.71373e-06
7.71373e-06
7.71373e-06
7.71373e-06
7.56055e-06
7.71373e-06
7.71373e-06
7.71373e-06
7.71373e-06
7.71373e-06
7.71373e-06
7.71373e-06
7.71373e-06
7.71373e-06
6.02978e-06
7.71373e-06
7.71373e-06
7.58176e-06
7.58176e-06
7.58176e-06
7.58176e-06
7.71373e-06
6.75132e-06
6.75132e-06
6.75132e-06
6.75132e-06
7.71373e-06
7.71373e-06
6.81975e-06
6.81975e-06
7.71373e-06
6.81975e-06
7.71373e-06
6.81975e-06
7.19949e-06
7.19949e-06
7.19949e-06
7.19949e-06
7.71373e-06
7.71373e-06
7.71373e-06
7.71373e-06
6.80641e-06
7.71373e-06
7.71373e-06
7.71373e-06
7.71373e-06
7.71373e-06
7.71373e-06
7.71373e-06
7.71373e-06
7.71373e-06
7.67393e-06
7.71373e-06
7.67427e-06
7.71373e-06
7.71373e-06
7.71373e-06
7.71373e-06
7.71373e-06
7.71373e-06
7.71373e-06
7.71373e-06
5.95076e-06
5.95076e-06
5.95076e-06
5.95076e-06
6.95751e-06
7.71373e-06
7.71373e-06
7.71373e-06
7.71373e-06
7.71373e-06
7.71373e-06
7.71373e-06
6.40493e-06
7.34018e-06
7.71373e-06
7.71373e-06
7.71373e-06
7.20622e-06
7.5207e-06
7.20622e-06
7.5207e-06
7.20622e-06
7.5207e-06
7.20622e-06
7.5207e-06
7.71373e-06
5.54356e-06
5.55658e-06
5.55689e-06
5.52713e-06
5.52713e-06
5.52713e-06
5.52713e-06
7.08261e-06
7.71373e-06
7.71373e-06
7.71373e-06
7.71373e-06
7.71373e-06
7.71373e-06
7.71373e-06
7.71373e-06
7.71373e-06
7.71373e-06
7.71373e-06
7.71373e-06
7.71373e-06
7.71373e-06
7.71373e-06
7.71373e-06
7.71373e-06
7.71373e-06
7.71373e-06
7.71373e-06
7.71373e-06
6.96596e-06
6.96599e-06
6.92768e-06
6.8464e-06
7.71373e-06
7.24976e-06
7.68515e-06
7.71373e-06
7.71373e-06
7.71373e-06
7.71373e-06
7.71373e-06
7.71373e-06
7.71373e-06
7.71373e-06
7.71373e-06
7.71373e-06
7.71373e-06
7.71373e-06
7.71373e-06
7.71373e-06
7.71373e-06
7.71373e-06
7.71373e-06
7.71373e-06
7.71373e-06
7.71373e-06
7.60842e-06
6.61387e-06
5.50203e-06
5.50203e-06
5.50203e-06
5.50203e-06
7.71373e-06
7.71373e-06
6.84066e-06
6.84066e-06
7.71373e-06
7.71373e-06
6.84066e-06
6.84066e-06
7.71373e-06
7.71373e-06
7.71373e-06
7.69537e-06
5.79056e-06
5.79056e-06
5.79056e-06
5.79056e-06
7.71373e-06
7.71373e-06
7.71373e-06
7.71373e-06
7.71373e-06
7.71373e-06
7.71373e-06
7.71373e-06
5.85429e-06
7.71373e-06
7.71373e-06
7.71373e-06
7.71373e-06
7.71373e-06
7.32818e-06
7.32818e-06
7.32818e-06
7.32818e-06
6.23015e-06
6.23015e-06
6.23015e-06
6.23015e-06
5.98948e-06
7.71373e-06
7.71373e-06
7.71373e-06
7.71373e-06
7.71373e-06
7.71373e-06
7.71373e-06
7.71373e-06
7.71373e-06
6.64058e-06
5.80467e-06
5.81786e-06
5.73152e-06
5.72509e-06
7.36103e-06
7.71373e-06
7.71373e-06
7.71373e-06
7.71373e-06
7.71373e-06
7.71373e-06
7.23798e-06
7.71373e-06
7.03183e-06
7.03183e-06
7.03183e-06
7.03183e-06
7.25399e-06
7.71373e-06
7.07671e-06
7.60586e-06
7.71373e-06
7.71373e-06
7.71373e-06
7.71373e-06
7.62206e-06
7.71373e-06
7.71373e-06
6.18382e-06
6.18382e-06
6.18382e-06
6.18382e-06
7.45826e-06
7.45826e-06
7.45826e-06
7.45826e-06
6.02844e-06
6.02844e-06
6.02844e-06
6.02844e-06
7.71373e-06
7.71373e-06
7.71373e-06
7.71373e-06
7.71373e-06
7.71373e-06
7.71373e-06
7.71373e-06
7.71373e-06
7.71373e-06
7.71373e-06
5.91899e-06
5.91899e-06
5.91899e-06
5.91899e-06
5.77729e-06
6.20047e-06
7.53368e-06
7.53368e-06
7.53368e-06
7.53368e-06
7.71373e-06
6.70275e-06
6.68155e-06
6.86626e-06
6.46457e-06
7.13241e-06
7.71373e-06
7.71373e-06
7.71373e-06
7.71373e-06
5.7025e-06
5.7025e-06
5.48218e-06
5.46207e-06
7.71373e-06
7.71373e-06
7.71373e-06
7.71373e-06
7.45814e-06
7.45814e-06
7.45814e-06
7.45814e-06
7.71373e-06
7.71373e-06
7.71373e-06
7.71373e-06
7.06106e-06
7.06106e-06
7.06106e-06
7.06106e-06
7.36162e-06
7.36162e-06
7.36162e-06
7.36162e-06
7.71373e-06
7.71373e-06
7.71373e-06
7.71373e-06
7.71373e-06
7.57068e-06
7.71373e-06
6.64193e-06
6.64193e-06
6.64193e-06
6.64193e-06
5.96586e-06
5.96586e-06
5.96586e-06
5.96586e-06
7.60662e-06
7.60662e-06
7.60662e-06
7.60662e-06
7.71373e-06
7.71373e-06
7.71373e-06
7.71373e-06
7.5654e-06
6.09871e-06
7.40915e-06
7.47458e-06
7.47458e-06
7.47458e-06
7.47458e-06
6.32869e-06
6.2718e-06
7.71373e-06
7.71373e-06
7.71373e-06
7.71373e-06
7.71373e-06
7.71373e-06
7.71373e-06
7.71373e-06
7.71373e-06
7.71373e-06
6.98403e-06
7.36796e-06
7.36796e-06
7.36796e-06
7.36796e-06
7.22194e-06
7.33235e-06
7.35702e-06
7.3458e-06
7.34608e-06
7.34281e-06
6.93948e-06
6.78255e-06
7.35856e-06
6.25528e-06
6.96777e-06
6.3847e-06
6.3847e-06
6.3847e-06
6.3847e-06
7.67873e-06
7.67873e-06
7.67873e-06
7.67873e-06
5.86796e-06
5.86796e-06
6.5522e-06
6.5522e-06
5.86796e-06
5.86796e-06
6.5522e-06
6.5522e-06
7.29457e-06
7.71373e-06
7.65745e-06
7.65745e-06
7.65745e-06
7.65745e-06
7.71373e-06
7.71373e-06
7.17443e-06
7.71373e-06
7.71373e-06
7.61425e-06
7.61425e-06
7.61479e-06
7.60982e-06
6.89058e-06
6.89058e-06
7.71373e-06
7.71373e-06
6.09055e-06
7.71373e-06
6.41293e-06
7.71373e-06
7.71373e-06
7.71373e-06
7.71373e-06
7.71373e-06
7.71373e-06
7.71373e-06
7.71373e-06
6.6976e-06
7.71373e-06
6.6976e-06
6.82425e-06
7.71373e-06
7.71373e-06
6.75869e-06
7.71373e-06
7.65176e-06
7.65176e-06
7.65176e-06
7.65176e-06
7.23594e-06
6.44625e-06
6.62414e-06
6.53406e-06
6.70725e-06
7.16332e-06
7.16332e-06
7.16332e-06
7.16332e-06
7.71373e-06
7.71373e-06
7.71373e-06
7.71373e-06
7.71373e-06
7.71373e-06
7.03461e-06
7.25099e-06
7.25099e-06
7.25099e-06
7.25099e-06
7.63533e-06
7.63533e-06
7.25452e-06
7.20374e-06
7.03488e-06
7.03488e-06
7.04048e-06
7.04233e-06
7.44481e-06
7.71373e-06
7.71373e-06
7.52748e-06
7.71373e-06
7.52748e-06
7.52748e-06
7.71373e-06
7.71373e-06
7.52748e-06
5.95524e-06
6.87701e-06
5.95499e-06
6.87778e-06
5.95508e-06
6.87778e-06
7.68097e-06
7.68365e-06
5.89529e-06
6.71493e-06
6.04863e-06
6.19488e-06
7.16681e-06
7.16681e-06
7.205e-06
7.205e-06
7.16681e-06
7.205e-06
7.16681e-06
7.205e-06
5.9084e-06
5.9084e-06
5.9084e-06
5.9084e-06
7.71373e-06
7.71373e-06
7.71373e-06
7.71373e-06
7.71373e-06
7.71373e-06
7.71373e-06
7.71373e-06
7.71373e-06
7.32081e-06
7.71373e-06
7.32081e-06
7.71373e-06
7.32081e-06
7.71373e-06
7.32081e-06
7.71373e-06
7.60808e-06
7.60808e-06
7.60808e-06
7.60808e-06
7.39358e-06
7.39358e-06
7.71373e-06
7.71373e-06
7.39358e-06
7.71373e-06
7.39358e-06
7.71373e-06
7.51318e-06
7.51318e-06
7.51318e-06
7.51318e-06
7.71373e-06
7.71373e-06
7.71373e-06
7.71373e-06
7.13626e-06
6.38589e-06
7.71373e-06
7.71373e-06
7.71373e-06
7.71373e-06
7.71373e-06
6.87409e-06
7.71373e-06
7.71373e-06
6.87409e-06
6.87409e-06
7.71373e-06
6.87409e-06
7.71373e-06
7.71373e-06
7.67126e-06
7.67126e-06
5.54923e-06
7.27116e-06
7.27116e-06
7.27116e-06
7.27116e-06
7.6366e-06
7.6366e-06
7.6366e-06
7.6366e-06
7.71373e-06
7.71373e-06
7.71274e-06
7.71373e-06
7.36282e-06
7.08036e-06
7.04704e-06
7.71373e-06
7.71373e-06
7.71373e-06
7.71373e-06
4.77205e-06
4.77205e-06
4.77205e-06
4.77205e-06
6.35713e-06
6.35713e-06
6.35713e-06
6.35713e-06
7.71373e-06
7.71373e-06
6.24485e-06
6.24485e-06
6.53372e-06
6.38337e-06
5.70568e-06
5.70568e-06
5.61404e-06
5.5594e-06
6.0246e-06
6.76683e-06
6.76683e-06
6.76683e-06
6.76683e-06
6.66341e-06
6.66341e-06
6.66341e-06
6.66341e-06
6.79509e-06
6.3021e-06
6.65721e-06
6.35567e-06
5.72784e-06
6.46556e-06
6.73622e-06
6.73732e-06
6.18258e-06
6.2206e-06
7.38335e-06
7.38335e-06
7.38335e-06
7.38335e-06
6.85634e-06
6.85634e-06
6.85634e-06
6.85634e-06
7.71373e-06
7.71373e-06
7.71373e-06
7.71373e-06
6.34989e-06
6.34989e-06
6.34989e-06
6.34989e-06
7.71373e-06
5.34671e-06
7.71373e-06
6.48867e-06
6.48867e-06
6.48867e-06
6.48867e-06
7.59938e-06
7.40644e-06
7.71373e-06
7.71373e-06
7.00885e-06
7.00885e-06
7.00885e-06
7.00885e-06
7.71373e-06
7.71373e-06
5.06365e-06
5.06365e-06
5.06365e-06
5.06365e-06
6.85701e-06
7.21874e-06
6.3996e-06
6.3996e-06
6.3996e-06
6.3996e-06
6.3996e-06
6.3996e-06
6.3996e-06
6.3996e-06
5.7542e-06
5.72607e-06
5.91043e-06
5.32202e-06
7.06136e-06
7.06136e-06
7.06136e-06
7.06136e-06
6.88454e-06
6.88454e-06
6.88454e-06
6.88454e-06
5.31057e-06
5.31057e-06
5.31057e-06
5.31057e-06
7.11027e-06
5.55847e-06
5.55847e-06
5.55847e-06
5.55847e-06
7.57566e-06
7.57566e-06
7.57566e-06
7.57566e-06
7.08901e-06
7.11363e-06
7.06826e-06
7.11037e-06
7.54491e-06
7.33937e-06
7.71373e-06
7.71373e-06
7.71373e-06
7.71373e-06
7.22123e-06
7.22123e-06
7.22123e-06
7.22123e-06
6.78855e-06
7.12894e-06
5.67837e-06
6.8164e-06
6.8164e-06
6.8164e-06
6.8164e-06
6.25843e-06
6.25843e-06
6.25843e-06
6.25843e-06
7.71373e-06
7.71373e-06
7.71373e-06
7.25075e-06
7.71373e-06
7.51523e-06
7.51523e-06
7.51523e-06
7.51523e-06
6.64905e-06
5.54366e-06
5.54366e-06
5.54366e-06
5.54366e-06
6.67736e-06
7.71373e-06
6.77067e-06
6.79651e-06
6.55573e-06
6.20617e-06
7.28443e-06
7.28443e-06
7.28443e-06
7.28443e-06
6.65061e-06
6.65061e-06
6.65061e-06
6.65061e-06
6.13083e-06
6.13083e-06
6.13083e-06
6.13083e-06
6.58593e-06
7.38803e-06
7.38803e-06
7.40737e-06
7.40737e-06
7.38803e-06
7.40737e-06
7.38803e-06
7.40737e-06
6.76964e-06
6.76964e-06
7.05062e-06
7.04755e-06
7.71373e-06
5.76059e-06
5.76059e-06
5.76059e-06
5.76059e-06
7.71373e-06
6.83491e-06
6.83491e-06
6.83491e-06
6.83491e-06
7.66582e-06
5.51986e-06
5.51986e-06
5.51986e-06
5.51986e-06
5.51986e-06
5.51986e-06
5.51986e-06
5.51986e-06
7.71373e-06
7.71373e-06
7.71373e-06
7.71373e-06
6.1048e-06
6.1048e-06
6.1048e-06
6.1048e-06
6.56126e-06
7.20793e-06
6.70374e-06
7.70243e-06
7.71373e-06
7.71373e-06
6.30176e-06
7.71373e-06
6.92986e-06
6.1683e-06
7.71373e-06
7.71373e-06
7.71373e-06
7.71373e-06
7.71373e-06
6.01903e-06
7.71373e-06
6.01903e-06
7.71373e-06
6.01861e-06
7.71373e-06
6.01861e-06
7.71373e-06
6.11486e-06
6.11486e-06
6.11486e-06
6.11486e-06
6.94878e-06
7.05022e-06
6.94878e-06
7.05022e-06
7.04743e-06
6.95321e-06
7.05144e-06
6.95844e-06
7.46491e-06
7.46491e-06
7.46491e-06
7.46491e-06
7.71373e-06
5.78974e-06
7.71373e-06
7.71373e-06
5.78974e-06
5.78974e-06
7.71373e-06
5.78974e-06
7.11386e-06
6.83933e-06
6.06633e-06
6.06633e-06
6.01497e-06
6.01842e-06
7.71373e-06
7.54377e-06
7.54377e-06
7.54377e-06
7.54377e-06
5.94103e-06
6.90454e-06
7.71373e-06
6.73765e-06
7.71373e-06
6.73697e-06
6.78858e-06
5.24803e-06
7.09477e-06
7.21317e-06
6.69353e-06
6.68497e-06
6.68497e-06
6.68497e-06
6.68497e-06
7.08436e-06
7.71373e-06
7.71373e-06
7.71373e-06
7.71373e-06
7.71373e-06
7.71373e-06
7.71373e-06
7.71373e-06
7.71373e-06
7.71373e-06
7.71373e-06
7.71373e-06
5.46372e-06
5.46372e-06
6.11483e-06
6.11483e-06
5.46372e-06
5.46372e-06
6.11483e-06
6.11483e-06
7.15654e-06
6.92386e-06
7.15654e-06
6.92386e-06
7.15654e-06
6.92386e-06
7.15654e-06
6.92386e-06
6.96566e-06
6.43942e-06
6.43942e-06
6.43942e-06
6.43942e-06
7.71373e-06
7.66136e-06
7.71373e-06
7.69065e-06
7.71373e-06
7.64133e-06
7.71373e-06
7.68911e-06
6.50346e-06
6.50346e-06
6.50346e-06
6.50346e-06
7.65794e-06
6.3394e-06
7.65794e-06
6.3394e-06
6.34657e-06
7.71373e-06
6.34657e-06
7.71373e-06
5.33232e-06
5.33232e-06
5.33232e-06
5.33232e-06
6.68358e-06
5.1545e-06
5.93005e-06
5.84191e-06
5.84191e-06
5.84191e-06
5.84191e-06