/*--------------------------------*- C++ -*----------------------------------*\
| =========                 |                                                 |
| \\      /  F ield         | OpenFOAM: The Open Source CFD Toolbox           |
|  \\    /   O peration     | Version:  2106                                  |
|   \\  /    A nd           | Website:  www.openfoam.com                      |
|    \\/     M anipulation  |                                                 |
\*---------------------------------------------------------------------------*/
FoamFile
{
    version     2.0;
    format      ascii;
    arch        "LSB;label=32;scalar=64";
    class       volScalarField;
    location    "constant";
    object      minTetVolume;
}
// * * * * * * * * * * * * * * * * * * * * * * * * * * * * * * * * * * * * * //

dimensions      [0 0 0 0 0 0 0];

internalField   nonuniform List<scalar> 
2658
(
0.00460025
0.00566744
0.00767982
0.00767982
0.00767982
0.00767982
0.00705324
0.00705324
0.00705324
0.00705324
0.002704
0.002704
0.002704
0.002704
0.00571097
0.00354001
0.00354001
0.00387995
0.0037947
0.0106662
0.0106662
0.0106662
0.0106662
0.00685152
0.00749123
0.00590154
0.00401737
0.00732392
0.00732392
0.00732392
0.00732392
0.00615766
0.00615766
0.00615766
0.00615766
0.0084187
0.012638
0.012638
0.012638
0.012638
0.00598625
0.00598625
0.00598625
0.00598625
0.00548672
0.0111702
0.00596585
0.00828017
0.00828017
0.00828017
0.00828017
0.00924026
0.00924026
0.00924026
0.00924026
0.00777063
0.00777063
0.00777063
0.00777063
0.00774798
0.00774798
0.00774798
0.00774798
0.00473693
0.00473693
0.00473693
0.00473693
0.00229984
0.00229984
0.00229984
0.00229984
0.0109441
0.0156306
0.0109441
0.0109441
0.0156306
0.0156306
0.0109441
0.0156306
0.00625163
0.00350767
0.00350767
0.00350767
0.00350767
0.00281382
0.00281382
0.00281382
0.00281382
0.00484692
0.00484692
0.00484587
0.00493273
0.00815992
0.00688182
0.00815992
0.00688182
0.00815992
0.00688182
0.00815992
0.00688182
0.00353052
0.0029508
0.00348961
0.0101669
0.0101669
0.0101669
0.0101669
0.0118419
0.0118419
0.0118419
0.0118419
0.00370392
0.00752388
0.00724441
0.00859684
0.00817087
0.00752388
0.00791372
0.00724441
0.00820586
0.00503689
0.00634891
0.00477182
0.00447044
0.00380334
0.00380334
0.00380334
0.00380334
0.00867897
0.00867897
0.00867897
0.00867897
0.00523081
0.00523081
0.00523081
0.00523081
0.00729119
0.00729119
0.00729119
0.00729119
0.00611431
0.00380317
0.00380317
0.00380317
0.00380317
0.00753134
0.00753134
0.00753134
0.00753134
0.00384608
0.00384608
0.00384608
0.00384608
0.00431248
0.00492972
0.00299414
0.00299414
0.00299414
0.00299414
0.00447163
0.00447163
0.00447079
0.00447079
0.00371364
0.00144863
0.00672737
0.00713597
0.00820758
0.0114191
0.00591499
0.00841884
0.00610805
0.00600321
0.00389802
0.0036995
0.0036995
0.0036995
0.0036995
0.00596364
0.00596364
0.00710279
0.00710279
0.00596364
0.00596364
0.00710279
0.00710279
0.0121464
0.00361232
0.00320472
0.0103342
0.00293517
0.00293517
0.00293186
0.00293186
0.00623995
0.0053139
0.00645474
0.00574221
0.00574221
0.00574341
0.00574221
0.00456707
0.00456707
0.00456707
0.00456707
0.00278399
0.00392735
0.00392735
0.00392735
0.00392735
0.00364215
0.00364215
0.00364215
0.00364215
0.00655375
0.00655375
0.00655375
0.00655375
0.00278898
0.00771988
0.00662058
0.00489875
0.00744866
0.00617921
0.00489875
0.00662058
0.00591173
0.00707281
0.00413354
0.00413354
0.00413354
0.00413354
0.00232794
0.00232794
0.00232794
0.00232794
0.00319078
0.00570934
0.00570934
0.00570934
0.00570934
0.00304674
0.00304674
0.00304674
0.00304674
0.00702785
0.00130585
0.00115305
0.00586993
0.00586993
0.00586993
0.00586993
0.00146989
0.00832798
0.00584071
0.00584071
0.00584071
0.00584071
0.00647853
0.00623925
0.00623925
0.00623925
0.00623925
0.00353683
0.00353683
0.00353683
0.00353683
0.00161283
0.00161283
0.00161283
0.00161283
0.00815182
0.00815182
0.00815182
0.00815182
0.00108087
0.00430723
0.00430723
0.00430723
0.00430723
0.00273742
0.00273742
0.00273742
0.00273742
0.00182061
0.011049
0.011049
0.011049
0.011049
0.0131762
0.00673282
0.0104136
0.0107064
0.00745262
0.00744678
0.00311303
0.00311303
0.00311303
0.00311303
0.00305441
0.00308533
0.00633419
0.00633419
0.00649313
0.00667293
0.00464937
0.00464937
0.00464937
0.00464937
0.00626264
0.00626264
0.00626264
0.00626264
0.00251925
0.00790846
0.00790846
0.00790846
0.00790846
0.00693957
0.00693957
0.00693957
0.00693957
0.00254023
0.00412968
0.00412968
0.00412968
0.00412968
0.00510037
0.00510037
0.00510037
0.00510037
0.00279255
0.00279255
0.00279255
0.00279255
0.0021842
0.00296768
0.00296768
0.00296768
0.00296768
0.00572851
0.00572851
0.00572851
0.00572851
0.00495842
0.00711991
0.00851976
0.00899449
0.00513763
0.00513763
0.00513763
0.00513763
0.00685914
0.00587595
0.00799219
0.00799219
0.00799219
0.00799219
0.00906329
0.00906329
0.00906329
0.00906329
0.00803268
0.00803268
0.0080295
0.00803268
0.00370822
0.00370822
0.00370822
0.00370822
0.00359484
0.0076658
0.0076658
0.0076658
0.0076658
0.00264899
0.00488238
0.00631849
0.00631849
0.00631849
0.00631849
0.00343294
0.00343294
0.00343294
0.00343294
0.00778713
0.00793085
0.00778713
0.00793085
0.00778713
0.00793085
0.00778713
0.00793085
0.00637223
0.00637223
0.00637223
0.00637223
0.00539305
0.00539305
0.00539305
0.00539305
0.00285859
0.00285859
0.00285859
0.00285859
0.00265627
0.00265627
0.00265627
0.00265627
0.00955706
0.00909281
0.00909281
0.00955706
0.00909281
0.00955706
0.00909281
0.00955706
0.00712002
0.00712002
0.00712002
0.00712002
0.00704182
0.00704182
0.00704182
0.00704182
0.00399457
0.00399457
0.00399457
0.00399457
0.00240557
0.00575036
0.00557027
0.00557027
0.00464406
0.00464406
0.00557027
0.00464406
0.00557027
0.00464406
0.00317998
0.0052958
0.0052958
0.0052958
0.0052958
0.00414738
0.00491774
0.00491774
0.00491774
0.00491774
0.00390753
0.00390753
0.00390753
0.00390753
0.00593662
0.00593662
0.00593662
0.00593662
0.00704138
0.00704138
0.00704138
0.00704138
0.00334331
0.00334331
0.00334331
0.00334331
0.00469023
0.00418508
0.00469023
0.00418508
0.00469023
0.00418508
0.00469023
0.00418508
0.00317521
0.00257398
0.00645718
0.00478651
0.00249897
0.00249897
0.00249897
0.00249897
0.0128642
0.0132439
0.0127506
0.0132391
0.00270776
0.00270776
0.00270776
0.00270776
0.0051509
0.0051509
0.00516617
0.0051509
0.00310498
0.00402161
0.00279064
0.00279064
0.00279064
0.00279064
0.00458565
0.00458565
0.00458565
0.00458565
0.0037846
0.00604031
0.00349105
0.00349105
0.00349105
0.00349105
0.00505378
0.00505378
0.00505378
0.00505378
0.0057586
0.00419948
0.0057586
0.00419948
0.0057586
0.0057586
0.00419948
0.00419948
0.00418545
0.00418545
0.00418545
0.00418545
0.00343206
0.00343206
0.00343206
0.00343206
0.00321791
0.0053025
0.0053025
0.0053025
0.0053025
0.00532075
0.00226398
0.00226398
0.00226398
0.00226398
0.00422313
0.0037984
0.00325676
0.00282967
0.00953864
0.00953864
0.00953864
0.00953864
0.00905252
0.00905252
0.00905252
0.00905252
0.00183656
0.00418055
0.00265074
0.00265074
0.00265074
0.00265074
0.00364688
0.00517281
0.00412116
0.00412116
0.00412116
0.00412116
0.00902042
0.00496178
0.00496178
0.00496178
0.00496178
0.00370197
0.00372272
0.00367627
0.00371805
0.00434098
0.00573445
0.00573445
0.00572433
0.00573445
0.00290231
0.00439005
0.00439005
0.00439005
0.00439005
0.00473881
0.00473881
0.00473881
0.00473881
0.00238249
0.00302256
0.00731619
0.00630231
0.00731619
0.00630231
0.00731619
0.00731619
0.00630231
0.00630231
0.00339466
0.00437594
0.00437594
0.00437594
0.00437594
0.00480911
0.00480911
0.00480911
0.00480911
0.00303696
0.00196674
0.00196674
0.00196674
0.00196674
0.00236512
0.00255497
0.00236512
0.00234773
0.00471014
0.00471002
0.00464793
0.00476827
0.0015122
0.00378855
0.00378855
0.00378855
0.00378855
0.00204574
0.00204574
0.0021087
0.00215751
0.00497616
0.00497616
0.00348448
0.00497616
0.00348448
0.00497616
0.00348448
0.00348448
0.00888567
0.0068605
0.00888567
0.00888567
0.0068605
0.0068605
0.00888567
0.0068605
0.00269909
0.00269909
0.00269909
0.00269909
0.00260296
0.00387026
0.00387026
0.00321887
0.00366742
0.00262745
0.00375643
0.00375643
0.00375643
0.00375643
0.00372832
0.0033345
0.00247748
0.00247748
0.00247412
0.00247663
0.00570733
0.00570733
0.00584569
0.00570733
0.00259808
0.00259808
0.00259808
0.00259808
0.00255355
0.00255355
0.00255355
0.00255355
0.00447964
0.00447964
0.00455713
0.00455713
0.00334864
0.00334864
0.00334864
0.00334864
0.00315998
0.00410258
0.00378765
0.00410258
0.00378765
0.00410258
0.00378765
0.00410258
0.00378765
0.00581861
0.00698178
0.00296129
0.00296129
0.00296129
0.00296129
0.00117149
0.00206496
0.00332291
0.00332291
0.00574285
0.0066376
0.0043306
0.0043306
0.0043306
0.0043306
0.00404759
0.00331645
0.00331645
0.00331645
0.00331645
0.00313706
0.00313706
0.00313706
0.00313706
0.00535345
0.00535345
0.00531247
0.00524285
0.00374467
0.00374467
0.00374467
0.00374467
0.00383103
0.00383103
0.00383103
0.00383103
0.0062606
0.0062606
0.0062606
0.0062606
0.00461573
0.00461573
0.00461573
0.00461573
0.00755403
0.00692845
0.00755403
0.00692845
0.00755403
0.00692845
0.00755403
0.00692845
0.0124534
0.0124534
0.0124534
0.0124534
0.00451179
0.00451179
0.00451179
0.00451179
0.00584924
0.00555538
0.00230299
0.00230299
0.00230299
0.00230299
0.00729746
0.00729746
0.00729746
0.00729746
0.00494452
0.00494452
0.00494452
0.00494452
0.00661755
0.00567221
0.00661755
0.00567221
0.00661755
0.00567221
0.00661755
0.00567221
0.00261317
0.00233517
0.00279929
0.00279929
0.00279929
0.00279929
0.00268187
0.00654811
0.00268187
0.00654811
0.00268187
0.00654811
0.00268187
0.00654811
0.0050773
0.00511878
0.0046037
0.00528848
0.0046037
0.00528848
0.0046037
0.00528848
0.0046037
0.00528848
0.00355592
0.00530236
0.00781158
0.00781158
0.00781158
0.00781158
0.00288672
0.00288672
0.00284331
0.00288672
0.0028287
0.0028287
0.00279668
0.00279668
0.0066371
0.0066371
0.0066371
0.0066371
0.00196378
0.00196694
0.00342325
0.00342325
0.00342325
0.00342325
0.00331076
0.00331076
0.00331076
0.00331076
0.00685724
0.00650083
0.00681183
0.0067659
0.00678244
0.00735271
0.00681183
0.0067659
0.00609471
0.00609471
0.00609471
0.00609471
0.00753056
0.00753056
0.00754039
0.00753056
0.00386178
0.00386178
0.00386178
0.00386178
0.00318938
0.00318938
0.00336747
0.00318938
0.00473145
0.00400608
0.0100638
0.0100638
0.0100638
0.0100638
0.00580216
0.00167818
0.00122902
0.00435496
0.00481137
0.00435496
0.00481137
0.00693631
0.00326904
0.00690625
0.00333927
0.00355749
0.00355749
0.00355749
0.00355749
0.00385075
0.00385075
0.00385075
0.00385075
0.00395606
0.00638404
0.00506637
0.00578555
0.00352468
0.00188607
0.00352468
0.00321602
0.00200695
0.00188607
0.00331856
0.0020537
0.00206878
0.00250885
0.0014065
0.0040352
0.0040352
0.0040352
0.0040352
0.00109253
0.00113616
0.00176476
0.00212022
0.00335033
0.00325044
0.00325044
0.00325044
0.00325044
0.00377018
0.00328946
0.00330368
0.00320486
0.00903921
0.00376164
0.00903921
0.00376164
0.00903921
0.00376164
0.00903921
0.00376164
0.00408898
0.00408898
0.00408898
0.00408898
0.00987722
0.00395217
0.0025432
0.00253023
0.00643484
0.00643484
0.00643484
0.00643484
0.0013631
0.00557585
0.00271796
0.00237516
0.00242232
0.00242232
0.00242232
0.00242232
0.00199834
0.00159906
0.00222491
0.00222491
0.00222491
0.00222491
0.00357469
0.00564598
0.00462149
0.0062755
0.0062755
0.0062755
0.0062755
0.00263569
0.00187156
0.00190632
0.00446859
0.00446859
0.00446859
0.00446859
0.00527195
0.00527195
0.00527195
0.00527195
0.00255291
0.00935132
0.00346713
0.00346713
0.00346713
0.00346713
0.00487139
0.00487139
0.00487139
0.00487139
0.00354964
0.00371631
0.0012394
0.00124112
0.00130627
0.00131259
0.00497493
0.00180175
0.00180175
0.00180175
0.00180175
0.00381533
0.00381533
0.00381533
0.00381533
0.00720747
0.00597487
0.00597487
0.00597487
0.00597487
0.0062446
0.00627457
0.00624475
0.00573293
0.00303405
0.00348786
0.00348786
0.00348786
0.00348786
0.00193687
0.00324574
0.00324574
0.00324574
0.00324574
0.00468457
0.00413471
0.00360457
0.00649462
0.00375133
0.00649462
0.00375133
0.00571078
0.00457866
0.00404614
0.00372942
0.00261848
0.00261848
0.00261848
0.00261848
0.00158591
0.00512824
0.00512824
0.00542424
0.00542424
0.00512824
0.00542424
0.00512824
0.00542424
0.00381322
0.00381322
0.00381322
0.00381322
0.0058865
0.00181278
0.00136838
0.00348106
0.0037425
0.0037425
0.0037425
0.0037425
0.00366701
0.00366701
0.00366701
0.00366701
0.0103207
0.0104296
0.00305363
0.00305363
0.00305363
0.00305363
0.00177814
0.00177814
0.00177814
0.00177814
0.00211063
0.00211063
0.00211063
0.00211063
0.00587415
0.00587415
0.00582873
0.00587415
0.00505278
0.00440636
0.00440636
0.00440636
0.00440636
0.00533143
0.00533143
0.00533143
0.00533143
0.00236618
0.00294932
0.00294932
0.00294932
0.00294932
0.0050299
0.0050299
0.00358152
0.0050299
0.00358152
0.00358152
0.0050299
0.00358152
0.00482081
0.00482081
0.00482081
0.00482081
0.00170864
0.00579725
0.00579725
0.00579725
0.00579725
0.00660607
0.0045488
0.0045488
0.0045488
0.0045488
0.00283455
0.00283455
0.00283455
0.00283455
0.00391528
0.00391528
0.00391528
0.00391528
0.00929847
0.00139227
0.00509476
0.00509476
0.00509476
0.00509476
0.00238041
0.00227134
0.00284708
0.0028152
0.00472317
0.00472317
0.00472317
0.00472317
0.00459211
0.00459211
0.00459211
0.00459211
0.00192042
0.00192042
0.00176171
0.00176353
0.00617897
0.00617897
0.00617897
0.00617897
0.00440978
0.00440978
0.00440948
0.00440948
0.00410599
0.00410599
0.00410599
0.00410599
0.00450654
0.00463748
0.00578693
0.00578693
0.00578693
0.00578693
0.00219006
0.00219006
0.00219006
0.00219006
0.00255358
0.00487065
0.00487065
0.00487065
0.00487065
0.00647977
0.00552774
0.00552774
0.00552774
0.00552774
0.00386556
0.0023548
0.00576189
0.0023548
0.0023548
0.00576189
0.00576189
0.0023548
0.00576189
0.00407116
0.00407116
0.00407116
0.00407116
0.0063333
0.0063333
0.0063333
0.0063333
0.00204782
0.00204782
0.00204782
0.00204782
0.00401556
0.00812124
0.00500064
0.00731033
0.00759752
0.00812124
0.00500064
0.00792069
0.006191
0.0088231
0.0088231
0.0088231
0.0088231
0.0089027
0.0089027
0.0089027
0.0089027
0.00303701
0.00303701
0.00303701
0.00303701
0.0034787
0.0034787
0.0034787
0.0034787
0.00776832
0.00685172
0.00776832
0.00685172
0.00776832
0.00685172
0.00776832
0.00685172
0.00469871
0.00505185
0.00469871
0.00505185
0.00421545
0.00499699
0.00469871
0.00505185
0.00570359
0.00570359
0.00570359
0.00570359
0.00462368
0.00462368
0.00462368
0.00462368
0.00203993
0.00230998
0.00230998
0.00230998
0.00230998
0.00187936
0.00187936
0.00187936
0.00187936
0.00621992
0.00507203
0.00388469
0.00261825
0.00211541
0.00243326
0.00243457
0.00115774
0.00115774
0.00115774
0.00115774
0.00284821
0.00284821
0.00284821
0.00284821
0.00267233
0.00455603
0.00696729
0.0070851
0.0070851
0.0070851
0.0070851
0.00195706
0.00195706
0.00195706
0.00195706
0.00246438
0.00345878
0.00099927
0.00099927
0.00099927
0.00099927
0.00368995
0.00305152
0.00368995
0.00368995
0.00305152
0.00305152
0.00368995
0.00305152
0.00363291
0.00363291
0.00480364
0.00367504
0.00306598
0.00163168
0.00163168
0.00163168
0.00163168
0.00393284
0.00393284
0.00393284
0.00393284
0.00304953
0.00304953
0.00304953
0.00304953
0.00290603
0.00241682
0.00369086
0.00369086
0.00369086
0.00369086
0.00485257
0.00386244
0.00386244
0.00386244
0.00386244
0.00333338
0.00369677
0.00380061
0.00199852
0.00199852
0.00199868
0.00199868
0.00590787
0.00590787
0.00590787
0.00590787
0.00573153
0.00569179
0.00340026
0.00340026
0.00340026
0.00340026
0.00394126
0.00870302
0.00463938
0.00463938
0.00463938
0.00463938
0.00505818
0.00505818
0.00505818
0.00505818
0.003453
0.00344203
0.00216316
0.00216318
0.00217877
0.00212772
0.005221
0.00433017
0.00465313
0.00465313
0.00465313
0.00465313
0.00273764
0.00390254
0.00390414
0.00183817
0.00232643
0.00566999
0.00566999
0.00566999
0.00566999
0.00279874
0.00231082
0.00979873
0.00979873
0.00979834
0.00979873
0.00302977
0.00237288
0.00237288
0.00302977
0.00302977
0.00237288
0.00302977
0.00237288
0.00322336
0.00260299
0.00260299
0.00263087
0.00260299
0.00249109
0.00277434
0.00341951
0.00341951
0.00341951
0.00341951
0.00381029
0.00343319
0.00343319
0.00343319
0.00343319
0.0038264
0.00352135
0.00352135
0.00352135
0.00352135
0.00324444
0.00324444
0.00355503
0.00311997
0.00386708
0.00386708
0.00386708
0.00386708
0.00253221
0.00253221
0.00253221
0.00253221
0.00346216
0.00455245
0.00184496
0.00478714
0.00478714
0.00478714
0.00478714
0.0048804
0.00321598
0.00307178
0.00312092
0.00312092
0.00312092
0.00312092
0.00349054
0.00349495
0.0032067
0.00319174
0.00655045
0.00655045
0.00655045
0.00655045
0.00445207
0.00445207
0.00445207
0.00445207
0.0039754
0.00333677
0.00237679
0.00449611
0.00259891
0.00449611
0.00259891
0.00449611
0.00259891
0.00449611
0.00259891
0.0046776
0.0046776
0.00478326
0.00459641
0.00160738
0.00160738
0.00160738
0.00160738
0.00447568
0.00447568
0.00447568
0.00447568
0.00348435
0.00702433
0.00348435
0.00348435
0.00702433
0.00702433
0.00348435
0.00702433
0.00229741
0.00229741
0.00229741
0.00229741
0.00408025
0.00408025
0.00408025
0.00408025
0.00212958
0.00212958
0.00212864
0.00212864
0.00429974
0.00244237
0.00276701
0.00574949
0.00574949
0.00635178
0.004854
0.00238045
0.00238045
0.00238045
0.00238045
0.0023619
0.0023619
0.00236215
0.00236215
0.00471245
0.00471245
0.00471245
0.00471245
0.00469582
0.00469582
0.00469582
0.00469582
0.00482634
0.00358477
0.00395741
0.0029653
0.00362238
0.00290771
0.00479718
0.00170644
0.00170644
0.00170644
0.00170644
0.00211344
0.00211344
0.00211344
0.00211344
0.00490917
0.0032774
0.00598996
0.00598996
0.00598996
0.00598996
0.00311664
0.00311664
0.00311664
0.00311664
0.0034166
0.00285265
0.0034166
0.00285265
0.0034166
0.00285265
0.0034166
0.00285265
0.00250431
0.00330232
0.00489258
0.00460003
0.00471153
0.00609703
0.00609703
0.00609703
0.00609703
0.00695459
0.00396359
0.00396359
0.00396359
0.00396359
0.00393187
0.00393187
0.00308892
0.00352653
0.00619381
0.00391751
0.00619381
0.00391751
0.00391751
0.00619381
0.00619381
0.00391751
0.00147862
0.00705201
0.00865896
0.0025691
0.0025691
0.0025691
0.0025691
0.00478826
0.00205283
0.00205283
0.00205283
0.00205283
0.00286867
0.00286867
0.0019612
0.0019612
0.00286867
0.0019612
0.00286867
0.0019612
0.00280569
0.00280569
0.00280569
0.00280569
0.00312808
0.00312808
0.00312808
0.00312808
0.00205224
0.00348284
0.00348284
0.00348284
0.00348284
0.00374239
0.00373917
0.00321757
0.00322931
0.00350858
0.00307884
0.00350858
0.00321787
0.00280446
0.00280446
0.00280446
0.00280446
0.00263466
0.00263466
0.00263466
0.00263466
0.00116784
0.00116784
0.00116784
0.00116784
0.00315928
0.00405715
0.00466914
0.00260898
0.00260898
0.00260898
0.00260898
0.00330135
0.00218046
0.00280282
0.00419043
0.00419762
0.00419679
0.00271484
0.00301531
0.00271484
0.00301531
0.00271484
0.00301531
0.00271484
0.00301531
0.00340601
0.00118627
0.00118889
0.00118945
0.00128059
0.00128059
0.00128059
0.00128059
0.00314748
0.00480644
0.00480644
0.00480644
0.00480644
0.00461472
0.00461472
0.00461472
0.00461472
0.00470036
0.00470036
0.00287948
0.00287948
0.00287948
0.00287948
0.00470036
0.00470036
0.00656126
0.00446122
0.00446122
0.00558011
0.00558011
0.00274689
0.00274691
0.00255792
0.00259515
0.00427202
0.00322492
0.0033365
0.00461469
0.00461469
0.00461469
0.00461469
0.0062237
0.0062237
0.00622485
0.0062237
0.00555198
0.00555198
0.00555198
0.00555198
0.00274142
0.00274142
0.00274142
0.00274142
0.00454338
0.00454338
0.00454338
0.00454338
0.00318901
0.00279134
0.0010662
0.0010662
0.0010662
0.0010662
0.00474412
0.00474412
0.00211485
0.00211485
0.00474412
0.00474412
0.00211485
0.00211485
0.00370815
0.00370815
0.00468884
0.00342814
0.00144252
0.00144252
0.00144252
0.00144252
0.00277216
0.00277216
0.00277216
0.00277216
0.00405502
0.00405502
0.00405502
0.00405502
0.00143658
0.00379767
0.00458262
0.00458262
0.00458262
0.00458262
0.00243773
0.00243773
0.00243773
0.00243773
0.00164704
0.00164704
0.00164704
0.00164704
0.00155541
0.00588441
0.00588441
0.00563302
0.00563302
0.00343218
0.00343218
0.00343218
0.00343218
0.00452251
0.00205041
0.00150366
0.00151685
0.00150833
0.0015096
0.00252229
0.00356358
0.00356358
0.00356358
0.00356358
0.00379911
0.00381301
0.00283046
0.00534357
0.00245081
0.00245081
0.00245081
0.00245081
0.0029757
0.00499793
0.00287879
0.00363033
0.00513633
0.00513633
0.00513633
0.00513633
0.0032583
0.00268976
0.00344168
0.00204868
0.00204868
0.00204868
0.00204868
0.00312815
0.00312815
0.00312815
0.00312815
0.00211005
0.00211005
0.00211005
0.00211005
0.00381055
0.00342427
0.00343192
0.0046851
0.0046851
0.0046851
0.0046851
0.00401439
0.00401439
0.00401439
0.00401439
0.0012288
0.0012288
0.0012288
0.0012288
0.00163368
0.00201436
0.00285958
0.00285958
0.00285958
0.00285958
0.00560994
0.00224033
0.00220038
0.00227569
0.0020286
0.00257594
0.00412788
0.00412788
0.00412788
0.00412788
0.00123518
0.00123518
0.00113176
0.00112426
0.00448792
0.00448792
0.00448792
0.00448792
0.00379319
0.00379319
0.00379319
0.00379319
0.00492543
0.00492543
0.00492543
0.00492543
0.00264567
0.00264567
0.00264567
0.00264567
0.00250401
0.00250401
0.00250401
0.00250401
0.00365185
0.00365185
0.00365185
0.00365185
0.00330508
0.00294475
0.00311636
0.00175086
0.00175086
0.00175086
0.00175086
0.00123016
0.00123016
0.00123016
0.00123016
0.00317044
0.00317044
0.00317044
0.00317044
0.00332313
0.00332313
0.00332313
0.00332313
0.00265755
0.00203192
0.00358531
0.00300855
0.00300855
0.00300855
0.00300855
0.00184275
0.00185274
0.00466752
0.00392942
0.00392942
0.00392942
0.00392942
0.00604449
0.00340831
0.00340831
0.00340831
0.00340831
0.00199369
0.00357187
0.00357187
0.00357187
0.00357187
0.00253537
0.00364076
0.00356285
0.0035321
0.00354343
0.00352869
0.00239852
0.00224956
0.00308839
0.00149602
0.00281133
0.00199466
0.00199466
0.00199466
0.00199466
0.00356461
0.00356461
0.00356461
0.00356461
0.00152138
0.00152138
0.00211106
0.00211106
0.00152138
0.00152138
0.00211106
0.00211106
0.00307885
0.00539586
0.00339155
0.00339155
0.00339155
0.00339155
0.00620118
0.00457433
0.00261573
0.00408133
0.00427948
0.00366091
0.00366091
0.00366035
0.00365758
0.00227146
0.00227146
0.00490767
0.00403562
0.00209796
0.00251346
0.0014866
0.0030618
0.00273572
0.0030618
0.00306077
0.00273788
0.00273572
0.00305791
0.00273702
0.00203032
0.00537081
0.00203032
0.00237633
0.00537081
0.00508841
0.00213356
0.00532514
0.00275457
0.00275457
0.00275457
0.00275457
0.0030065
0.00219765
0.00239546
0.00231594
0.00251386
0.00295533
0.00295533
0.00295533
0.00295533
0.00414591
0.00484785
0.00392924
0.00392924
0.00392924
0.00392924
0.00284348
0.00269832
0.00269832
0.00269832
0.00269832
0.00296946
0.00296946
0.00303812
0.00299229
0.00246511
0.00246511
0.00247165
0.0024761
0.00319519
0.0045917
0.00364625
0.00265955
0.00364625
0.00265955
0.00265955
0.00364625
0.00364625
0.00265955
0.00131185
0.00201894
0.00131151
0.00201973
0.00131157
0.00201969
0.00305079
0.00305385
0.00116465
0.00192495
0.00141179
0.00149693
0.00282794
0.00282794
0.00348322
0.00348322
0.00282794
0.00348322
0.00282794
0.00348322
0.00134383
0.00134383
0.00134383
0.00134383
0.00773218
0.0049008
0.00381532
0.0049008
0.00381532
0.0049008
0.00381532
0.0049008
0.00381532
0.00270966
0.00364748
0.00270966
0.00364748
0.00270966
0.00364748
0.00270966
0.00364748
0.0030214
0.0030214
0.0030214
0.0030214
0.00283912
0.00283912
0.00388458
0.00388458
0.00283912
0.00388458
0.00283912
0.00388458
0.00262707
0.00262707
0.00262707
0.00262707
0.00676383
0.00331402
0.00676115
0.00331349
0.00212133
0.00215155
0.00321977
0.00321977
0.00321977
0.00321977
0.00370509
0.00240437
0.00370509
0.00370509
0.00240437
0.00240437
0.00370509
0.00240437
0.00392352
0.00392352
0.00395161
0.00395161
0.00146586
0.0032741
0.0032741
0.0032741
0.0032741
0.00342343
0.00342343
0.00342343
0.00342343
0.00393191
0.00649091
0.0029778
0.00679556
0.00234861
0.00263929
0.00293586
0.0030005
0.0030005
0.0030005
0.0030005
0.000870991
0.000870991
0.000870991
0.000870991
0.00123651
0.00123651
0.00123651
0.00123651
0.00489964
0.00422418
0.00190606
0.00190606
0.00216859
0.00207359
0.00151247
0.00151247
0.00153472
0.00148436
0.00135219
0.00228132
0.00228132
0.00228132
0.00228132
0.00220399
0.00220399
0.00220399
0.00220399
0.00234255
0.00185799
0.00212497
0.00229348
0.00177947
0.00222351
0.00205638
0.00205798
0.00201998
0.00203739
0.00213675
0.00213675
0.00213675
0.00213675
0.00233238
0.00233238
0.00233238
0.00233238
0.00556453
0.00556453
0.00556453
0.00556453
0.00202288
0.00202288
0.00202288
0.00202288
0.00402469
0.00107277
0.00384756
0.00188272
0.00188272
0.00188272
0.00188272
0.0035151
0.00273304
0.00444587
0.00444587
0.00244189
0.00244189
0.00244189
0.00244189
0.00444587
0.00444587
0.0010318
0.0010318
0.0010318
0.0010318
0.0028459
0.00337133
0.0017161
0.0017161
0.0017161
0.0017161
0.0017161
0.0017161
0.0017161
0.0017161
0.00150276
0.00150481
0.00171471
0.00135964
0.00237888
0.00237888
0.00237888
0.00237888
0.00226326
0.00226326
0.00226326
0.00226326
0.00101423
0.00101423
0.00101423
0.00101423
0.00271238
0.00123002
0.00123002
0.00123002
0.00123002
0.0030191
0.0030191
0.0030191
0.0030191
0.0027154
0.00275393
0.00269725
0.00275051
0.00275383
0.00269128
0.00338197
0.00338197
0.00338197
0.00338197
0.00290239
0.00290239
0.00290239
0.00290239
0.00232494
0.00281445
0.00161592
0.00212823
0.00212823
0.00212823
0.00212823
0.0017919
0.0017919
0.0017919
0.0017919
0.0038938
0.00423049
0.00418012
0.00316287
0.00303003
0.00359542
0.00359542
0.00359542
0.00359542
0.00243515
0.00109149
0.00109149
0.00109149
0.00109149
0.00201105
0.00334104
0.00243049
0.00231946
0.00212644
0.00160082
0.00249525
0.00249525
0.00249525
0.00249525
0.00210608
0.00210608
0.00210608
0.00210608
0.00163841
0.00163841
0.00163841
0.00163841
0.00280273
0.00335264
0.00335264
0.00358586
0.00358586
0.00335264
0.00358586
0.00335264
0.00358586
0.00210052
0.00210052
0.00240035
0.00239566
0.00495706
0.00122372
0.00122372
0.00122372
0.00122372
0.00524033
0.00271389
0.00271389
0.00271389
0.00271389
0.00321058
0.00114845
0.00114845
0.00114845
0.00114845
0.00114845
0.00114845
0.00114845
0.00114845
0.00622882
0.00622882
0.00622882
0.00622882
0.00182508
0.00182508
0.00182508
0.00182508
0.00183016
0.00200515
0.00233708
0.00288156
0.00313703
0.00552797
0.00208868
0.00586948
0.00185485
0.00211078
0.00414359
0.00414359
0.00533067
0.00533067
0.0040016
0.00171658
0.0040016
0.00171658
0.00400139
0.00171629
0.00400139
0.00171629
0.00433109
0.00188314
0.00188314
0.00188314
0.00188314
0.00232317
0.00262223
0.00232317
0.00262223
0.00261704
0.0023291
0.00261939
0.00233315
0.00252345
0.00252345
0.00252345
0.00252345
0.00581146
0.00124871
0.00581146
0.00581146
0.00124871
0.00124871
0.00581146
0.00124871
0.00206039
0.00173948
0.00148329
0.00148329
0.00151564
0.0015193
0.00379475
0.00287493
0.00287493
0.00287493
0.00287493
0.0021621
0.00284325
0.00367888
0.00205779
0.0036827
0.00205626
0.00269734
0.00108809
0.0028207
0.00288833
0.00271942
0.00255718
0.00255718
0.00255718
0.00255718
0.0031282
0.00417983
0.00402197
0.00417983
0.00402197
0.00417983
0.00402197
0.00417983
0.00402197
0.00469245
0.00469245
0.00469245
0.00469245
0.00145037
0.00145037
0.00157742
0.00157742
0.00145037
0.00145037
0.00157742
0.00157742
0.00333069
0.0032077
0.00333069
0.0032077
0.00333069
0.0032077
0.00333069
0.0032077
0.00280601
0.00241739
0.00241739
0.00241739
0.00241739
0.00522922
0.00293486
0.00527371
0.00297605
0.00520679
0.00290934
0.00526616
0.0029745
0.00253358
0.00253358
0.00253358
0.00253358
0.00378314
0.0019119
0.00378314
0.0019119
0.00170587
0.00406775
0.00170587
0.00406775
0.00134855
0.00134855
0.00134855
0.00134855
0.00275176
0.00122675
0.00195566
0.00161085
0.00161085
0.00161085
0.00161085
0.00239505
0.00239505
0.00239505
0.00239505
0.00135204
0.00127718
0.00127718
0.00127718
0.00127718
0.00183021
0.00175559
0.00298642
0.0022645
0.0022645
0.0022645
0.0022645
0.00206069
0.00308003
0.00212305
0.00184957
0.00184957
0.00184957
0.00184957
0.00133966
0.00218833
0.00218833
0.00218851
0.00218833
0.00104222
0.00124053
0.00124053
0.00124053
0.00124053
0.00184302
0.00184302
0.00184302
0.00184302
0.00259884
0.00259884
0.00259884
0.00259884
0.00351993
0.00351993
0.00351993
0.00351993
0.00248591
0.0017061
0.000883163
0.00259856
0.00147477
0.00170921
0.00175223
0.00204499
0.00213675
0.00228893
0.00213675
0.00228893
0.00213675
0.00228893
0.00213675
0.00228893
0.0020475
0.00224964
0.0020475
0.00224964
0.00204773
0.00224975
0.00204878
0.00224874
0.00263898
0.00263898
0.00267392
0.00263898
0.00439822
0.00182346
0.00430279
0.00430279
0.00432098
0.00430279
0.00288342
0.0030355
0.00222679
0.00222679
0.00222679
0.00222679
0.00242756
0.00242779
0.00164262
0.00242766
0.00117603
0.00123262
0.00123262
0.00123262
0.00123262
0.00175731
0.00175812
0.0019857
0.00175808
0.00223003
0.00219246
0.00192832
0.00192832
0.00192832
0.00192832
0.00315996
0.00315996
0.00315996
0.00315996
0.00248948
0.00226359
0.00226359
0.00248948
0.00137033
0.00137033
0.00137033
0.00248948
0.00137033
0.00137033
0.00248948
0.00137033
0.00137033
0.00137033
0.00226359
0.00226359
0.0016346
0.0016346
0.0016346
0.0016346
0.00182407
0.00182407
0.00182407
0.00182407
0.00265652
0.00265652
0.00267895
0.00265652
0.00381861
0.00424257
0.00175922
0.00227021
0.00337866
0.00375925
0.00112155
0.00396034
0.00524518
0.00396045
0.00524637
0.00338835
0.00376546
0.00338835
0.00376546
0.00338835
0.00376546
0.00338835
0.00376546
0.00126827
0.00126827
0.0011532
0.0011509
0.000972871
0.00163916
0.00100194
0.00158252
0.00191877
0.00174993
0.000796537
0.000796537
0.00160162
0.00160162
0.000796537
0.000796537
0.00160162
0.00160162
0.00323807
0.0018784
0.00180817
0.000761909
0.0021644
0.00245308
0.00337385
0.00245308
0.00337385
0.00341468
0.00245465
0.00247061
0.00343571
0.00109001
0.00146561
0.00146561
0.00146561
0.00146561
0.00264207
0.00260118
0.0026584
0.000916428
0.00190557
0.00249462
0.00170133
0.00188391
0.00302976
0.00253416
0.00137174
0.0018147
0.00208563
0.000958548
0.000965847
0.00190284
0.000710782
0.0013943
0.00106955
0.00289931
0.00464186
0.00177273
0.00177273
0.00177273
0.00177273
0.000910413
0.00189467
0.00186987
0.00197903
0.00150344
0.000934703
0.00193639
0.00118475
0.000715738
0.000857059
0.00101798
)
;

boundaryField
{
    frontAndBack
    {
        type            zeroGradient;
    }
    bottom
    {