/*--------------------------------*- C++ -*----------------------------------*\
| =========                 |                                                 |
| \\      /  F ield         | OpenFOAM: The Open Source CFD Toolbox           |
|  \\    /   O peration     | Version:  v2106                                 |
|   \\  /    A nd           | Website:  www.openfoam.com                      |
|    \\/     M anipulation  |                                                 |
\*---------------------------------------------------------------------------*/
FoamFile
{
    version     2.0;
    format      ascii;
    arch        "LSB;label=32;scalar=64";
    class       volScalarField;
    location    "constant";
    object      nonOrthoAngle;
}
// * * * * * * * * * * * * * * * * * * * * * * * * * * * * * * * * * * * * * //

dimensions      [0 0 0 0 0 0 0];

internalField   nonuniform List<scalar> 
2658
(
13.6538
16.8083
15.4574
15.4574
15.4574
15.4574
11.1521
11.1521
11.1521
11.1521
7.58311
7.58311
7.58311
7.58311
12.1542
9.43978
9.43978
9.15908
9.46065
13.7933
13.7933
13.7933
13.7933
6.86358
10.1484
17.2924
11.7153
4.23427
4.23427
4.23427
4.23427
2.58331
2.58331
2.58331
2.58331
12.5025
8.08465
8.08465
8.08465
8.08465
1.43607
1.43607
1.43607
1.43607
17.2924
11.7491
13.9582
12.869
12.869
12.869
12.869
11.7055
12.0842
11.9793
11.9314
7.65221
7.65221
7.65221
7.65221
10.1485
10.1485
10.1485
10.1485
9.5813
9.5813
9.5813
9.5813
21.6067
21.6067
21.6067
21.6067
6.65914
4.43168
6.65914
6.65914
4.43168
4.43168
6.65914
4.43168
7.35468
7.00469
7.00469
7.00469
7.00469
8.75648
8.75648
8.75648
8.75648
8.65945
8.66131
7.26915
9.3044
5.97737
10.2434
5.97737
10.2434
5.97737
10.2434
5.97737
10.2434
14.7084
15.6872
10.5476
3.26641
3.26641
3.26641
3.26641
11.2188
11.2188
11.2196
11.2196
12.037
7.78646
7.78646
4.09778
4.09778
7.78646
3.68563
7.78646
3.42361
7.70109
6.12797
14.4975
13.9553
10.1794
10.1794
10.1794
10.1794
17.8579
17.8579
17.8579
17.8579
11.6891
11.6891
11.6891
11.6891
8.63312
8.63312
8.63312
8.63312
10.4418
12.2145
12.2145
12.2145
12.2145
7.8928
7.8928
7.8928
7.8928
21.6067
21.6067
21.6067
21.6067
14.9308
13.9713
17.8579
17.8579
17.8579
17.8579
18.6025
18.6025
18.5952
18.5741
13.1093
7.93451
11.452
7.67379
3.68724
6.88622
7.04786
6.61236
5.45797
8.12201
6.45458
20.0449
20.0449
20.0449
20.0449
7.839
7.839
12.7266
12.7266
7.839
7.839
12.7266
12.7266
5.4833
21.8481
20.6714
5.82992
9.21385
9.21385
9.26839
9.27175
18.3116
15.2782
7.46717
1.93267
1.93267
1.8958
1.93267
5.17552
5.17552
5.17552
5.17552
7.50587
8.20521
8.20521
8.20521
8.20521
8.55007
8.55007
8.55007
8.55007
9.30096
9.30096
9.30096
9.30096
12.3208
8.06612
7.82745
7.82745
5.47915
5.47915
7.82745
7.82745
5.6353
5.6353
11.1521
11.1521
11.1521
11.1521
6.52044
6.52044
6.52044
6.52044
15.1602
6.03224
6.03224
6.03224
6.03224
18.1056
18.1056
18.1056
18.1056
11.594
14.8384
13.9553
9.62569
9.62569
9.62569
9.62569
8.75805
10.2566
12.5692
12.5692
12.5692
12.5692
14.499
3.75222
3.75222
3.75222
3.75222
12.6131
12.6131
12.6131
12.6131
6.36645
6.36645
6.36645
6.36645
4.49813
4.49813
4.49813
4.49813
15.1602
5.71974
5.71974
5.71974
5.71974
8.37961
8.37961
8.37961
8.37961
12.037
9.69367
9.69367
9.69367
9.69367
6.15977
10.6835
18.2611
17.0617
8.16449
8.05271
8.20521
8.20521
8.20521
8.20521
14.4625
14.4141
4.44555
4.44555
4.35669
3.85569
4.23682
4.23682
3.3876
3.3876
5.95633
5.95633
5.95633
5.95633
5.76286
3.11889
3.11889
3.11889
3.11889
6.13158
6.13158
6.13158
6.13158
18.1726
7.2049
7.2049
7.2049
7.2049
9.69367
9.69367
9.69367
9.69367
23.1178
23.1178
23.1178
23.1178
12.5767
22.4662
22.4662
22.4662
22.4662
7.83303
7.83303
7.83303
7.83303
10.5863
14.9308
7.50567
5.39881
9.93958
9.93958
9.93958
9.93958
6.42028
6.91216
4.60523
4.60523
4.60523
4.60523
8.61067
8.61067
8.61067
8.61067
5.24722
5.24722
5.21813
5.24722
4.46697
4.46697
4.46697
4.46697
20.3992
10.0456
10.0456
10.0456
10.0456
15.6872
13.6538
21.3131
21.3131
21.3131
21.3131
10.556
10.556
10.556
10.556
9.74351
8.21267
9.74351
8.21267
9.74351
8.21267
9.74351
8.21267
14.8228
14.8228
14.8228
14.8228
5.03975
5.03975
5.03975
5.03975
5.87694
5.87694
5.87694
5.87694
9.76413
9.76413
9.76413
9.76413
4.5393
7.06097
6.65914
4.5393
7.06097
4.5393
6.65914
4.5393
5.87694
5.87694
5.87694
5.87694
8.51994
8.51994
8.51994
8.51994
8.79071
8.79071
8.79071
8.79071
19.6545
12.8191
2.37901
2.37901
2.37901
2.37901
2.37901
2.37901
2.37901
2.37901
4.16752
8.4887
8.4887
8.4887
8.4887
10.2566
9.54722
9.54722
9.54722
9.54722
17.2814
17.2814
17.2814
17.2814
6.71245
6.71245
6.71245
6.71245
7.66843
7.66843
7.66843
7.66843
7.8928
7.8928
7.8928
7.8928
6.03224
1.94652
6.03224
1.94652
6.03224
1.94652
6.03224
1.94652
5.95661
19.6545
10.2875
7.72005
11.0187
11.0187
11.0187
11.0187
7.59482
7.39911
7.47477
7.1989
4.27612
4.27612
4.27612
4.27612
4.21783
4.21783
4.19133
4.21783
16.0957
9.00568
4.38956
4.38956
4.38956
4.38956
12.984
12.984
12.984
12.984
9.89402
13.5228
10.5031
10.5031
10.5031
10.5031
15.2984
15.2984
15.2984
15.2984
10.1485
10.3798
10.1485
10.3798
10.1485
10.1485
10.3798
10.3798
12.1077
12.1077
12.1077
12.1077
9.59015
9.59015
9.59015
9.59015
5.45201
9.99128
9.99128
9.99128
9.99128
6.8083
1.31793
1.31793
1.31793
1.31793
14.1879
18.2611
17.8713
17.0617
16.9621
16.9621
16.9621
16.9621
13.0858
13.0858
13.0858
13.0858
8.32898
10.7816
6.36106
6.36106
6.36106
6.36106
7.67379
8.6076
8.91139
8.91139
8.91139
8.91139
9.89402
12.7889
12.7889
12.7744
12.7815
7.57933
7.32565
7.61953
7.28921
10.7419
6.34997
4.96328
6.34611
4.96328
18.3474
15.8686
15.8686
15.8686
15.8686
14.7785
14.7785
14.7785
14.7785
9.66193
10.3216
5.55863
5.55863
5.55863
5.55863
5.55863
5.55863
5.55863
5.55863
8.36924
7.79877
7.79877
7.79877
7.79877
6.36106
6.36106
6.36106
6.36106
4.70568
8.75809
8.75809
8.75809
8.75809
7.82496
5.68875
7.82496
4.57224
8.26212
8.26225
8.26973
7.85764
11.5969
10.3759
10.3759
10.3759
10.3759
9.43978
9.43978
9.15908
9.46065
5.33242
5.33242
10.8194
5.33242
10.8194
5.33242
10.8194
10.8194
6.14884
7.86666
6.14884
6.14884
7.86666
7.86666
6.14884
7.86666
3.09312
3.09312
3.09312
3.09312
10.7802
10.0397
10.0397
11.5748
10.2959
9.58772
9.54722
9.54722
9.54722
9.54722
7.00972
11.5631
9.21385
9.21385
9.26839
9.27175
10.7663
10.7663
11.4187
10.7663
8.29578
8.29578
8.29578
8.29578
11.3181
11.3181
11.3181
11.3181
7.22909
7.22909
7.70728
7.70728
8.63312
8.63312
8.63312
8.63312
5.88647
4.85872
5.26574
4.85872
5.26574
4.85872
5.26574
4.85872
5.26574
2.36713
1.65912
6.59147
6.59147
6.59147
6.59147
28.3164
9.61758
5.68191
5.68751
7.4907
7.00349
7.67007
7.67007
7.67007
7.67007
7.73813
13.2444
13.2444
13.2444
13.2444
21.3131
21.3131
21.3131
21.3131
11.9201
11.9201
11.955
14.9745
5.76511
5.76511
5.76511
5.76511
7.40248
7.40248
7.40248
7.40248
4.97781
4.97781
4.97781
4.97781
5.40358
5.40358
5.40358
5.40358
1.94304
4.44038
1.94304
4.44038
1.94304
4.44038
1.94304
4.44038
5.94985
5.94985
5.94985
5.94985
3.37424
3.37424
3.37424
3.37424
11.807
5.15813
6.59956
6.59956
6.59956
6.59956
13.7933
13.7933
13.7933
13.7933
6.0903
6.0903
6.0903
6.0903
10.0195
13.5512
10.0195
13.5512
10.0195
13.5512
10.0195
13.5512
8.38195
8.94416
3.46539
3.46539
3.46539
3.46539
4.39298
8.30844
4.39298
8.30844
4.39298
8.30844
4.39298
8.30844
7.52475
7.54125
7.9388
2.82047
7.9388
2.82047
7.9388
2.82047
7.9388
2.82047
15.2027
14.5532
4.48717
4.48717
4.48717
4.48717
18.1743
18.1743
17.5601
17.3678
9.73333
9.73333
10.8538
10.8538
6.90769
6.90769
6.90769
6.90769
7.52475
7.54125
14.3186
14.3186
14.3186
14.3186
9.80534
9.80534
9.80534
9.80534
1.52556
1.84269
7.86257
5.69442
3.65594
3.28702
7.45031
5.69442
4.35615
4.35615
4.35615
4.35615
5.24722
5.24722
5.21813
5.24722
3.24732
3.24732
3.24732
3.24732
11.927
11.9279
14.4589
11.9282
14.922
13.3146
9.74351
9.74351
9.74351
9.74351
6.23985
12.5393
17.8713
12.3298
6.88259
12.3298
6.88259
7.12198
7.30327
7.30664
7.26466
8.09228
8.09228
8.09228
8.09228
15.2984
15.2984
15.2984
15.2984
7.92395
12.9582
5.80463
8.94416
14.4625
8.44684
14.4141
3.6895
7.24404
8.44684
8.33328
7.19381
11.038
14.499
16.2003
13.0248
13.0248
13.0248
13.0248
3.7157
3.64103
15.3081
6.71073
11.2484
9.7646
9.7646
9.7646
9.7646
5.44096
6.09195
5.15813
6.57537
3.01717
8.00063
3.01717
8.00063
3.01717
8.00063
3.01717
8.00063
6.30776
6.30776
6.30776
6.30776
6.23985
5.98487
8.6071
8.02785
14.5485
14.5485
14.5485
14.5485
28.3164
9.62769
16.5545
7.00972
11.4647
11.4647
11.4647
11.4647
10.5863
17.098
2.59235
2.59235
2.59235
2.59235
4.16752
7.88855
11.0507
10.0456
10.0456
10.0456
10.0456
9.77855
8.34883
15.0216
1.72508
1.72508
1.72508
1.72508
15.2598
15.2598
15.2598
15.2598
14.7084
8.12201
4.74711
4.74711
4.74711
4.74711
7.67995
7.67995
7.67995
7.67995
21.8481
20.6714
23.6056
23.5336
21.9566
21.9583
12.9582
6.47844
6.47844
6.47844
6.47844
11.6891
11.6891
11.6891
11.6891
2.79691
5.76606
5.76606
5.76606
5.76606
3.92778
5.24461
3.92782
4.49399
13.9713
13.6779
13.6779
13.6779
13.6779
9.83594
16.0553
16.0553
16.0553
16.0553
17.4267
4.22446
10.5799
10.4024
13.6866
10.3932
13.6866
4.2293
8.92248
10.3376
13.061
10.1454
10.1454
10.1454
10.1454
16.0957
8.4887
8.4887
5.87487
5.87487
8.4887
5.87487
8.4887
5.87487
12.5692
12.5692
12.5692
12.5692
13.2421
23.0901
25.0194
10.353
7.38034
7.38034
7.38034
7.38034
12.6023
12.6023
12.6023
12.6023
14.05
3.66015
12.2145
12.2145
12.2145
12.2145
12.1077
12.1077
12.1077
12.1077
8.15896
8.15896
8.15896
8.15896
2.82456
2.82456
2.75686
2.82456
10.1991
9.30096
9.30096
9.30096
9.30096
13.0248
13.0248
13.0248
13.0248
3.80578
3.03887
3.03887
3.03887
3.03887
3.46137
3.46137
7.33555
3.46137
7.33555
7.33555
3.46137
7.33555
5.06621
5.06621
5.06621
5.06621
15.1234
6.01407
6.01407
6.01407
6.01407
11.3094
10.1469
10.1469
10.1469
10.1469
12.3187
12.3187
12.3187
12.3187
2.10869
2.10869
2.10869
2.10869
6.93626
13.1093
9.7835
9.7835
9.7835
9.7835
5.51115
7.99352
7.50567
5.39881
12.2275
12.2275
12.2275
12.2275
7.32923
7.32923
7.32923
7.32923
18.1743
18.1743
17.5601
17.3678
6.09239
6.09239
6.09239
6.09239
11.2188
11.2188
11.2196
11.2196
14.7785
14.7785
14.7785
14.7785
18.3116
15.2782
5.94985
5.94985
5.94985
5.94985
6.60111
6.60111
6.60111
6.60111
6.8083
10.5425
10.5425
10.5425
10.5425
8.51866
5.95633
5.95633
5.95633
5.95633
8.51866
4.97587
6.0903
4.97587
4.97587
6.0903
6.0903
4.97587
6.0903
6.33266
6.33266
6.33266
6.33266
5.97737
5.97737
5.97737
5.97737
10.6962
10.6962
10.6962
10.6962
12.1542
6.34997
7.06097
2.88211
5.58068
6.34611
7.06097
4.48125
5.8597
16.9621
16.9621
16.9621
16.9621
13.6779
13.6779
13.6779
13.6779
22.4662
22.4662
22.4662
22.4662
5.60387
5.60387
5.60387
5.60387
3.33208
2.25628
3.33208
2.25628
3.33208
2.25628
3.33208
2.25628
5.1689
8.38234
5.1689
8.38234
4.26992
10.2267
5.1689
8.38234
16.0186
16.0186
16.0186
16.0186
8.50762
8.50762
8.50762
8.50762
9.99031
9.38671
9.38671
9.38671
9.38671
12.869
12.869
12.869
12.869
7.88855
5.73647
14.05
11.7055
11.9793
12.0842
11.9314
6.26613
6.26613
6.26613
6.26613
8.33731
8.33731
8.33731
8.33731
16.9627
6.91224
7.15966
12.0271
12.0271
12.0271
12.0271
10.5741
10.5741
10.5741
10.5741
4.19078
5.18678
20.936
20.936
20.936
20.936
3.08928
5.23496
3.08928
3.08928
5.23496
5.23496
3.08928
5.23496
12.5033
12.5033
6.17077
11.756
14.1879
19.2475
19.2475
19.2475
19.2475
9.46552
9.46552
9.46552
9.46552
6.96215
6.96215
6.96215
6.96215
8.78927
8.90065
10.5425
10.5425
10.5425
10.5425
10.4293
10.4032
10.4032
10.4032
10.4032
13.9111
9.5675
9.7284
11.3744
11.3744
10.8064
10.8192
10.4846
10.4846
10.4846
10.4846
9.44944
8.20204
7.66843
7.66843
7.66843
7.66843
8.02054
11.452
14.3186
14.3186
14.3186
14.3186
5.24848
5.24848
5.24848
5.24848
9.98681
8.27289
7.80174
7.80203
7.95256
7.47439
3.11967
3.71738
14.5485
14.5485
14.5485
14.5485
8.96066
10.4024
10.3932
11.9966
9.4078
3.95839
3.95839
3.95839
3.95839
5.75471
11.3098
10.7663
10.7663
11.4187
10.7663
5.87487
8.24712
8.24712
5.87487
5.87487
8.24712
5.87487
8.24712
4.42685
8.56123
8.56123
8.41554
8.56123
14.7968
15.2077
9.03292
9.03292
9.03292
9.03292
20.3992
20.0449
20.0449
20.0449
20.0449
7.72445
5.86529
5.86529
5.86529
5.86529
13.6866
13.6866
10.4645
13.061
5.48693
5.48693
5.48693
5.48693
10.6889
10.6889
10.6889
10.6889
11.594
9.82709
7.72445
5.83394
5.83394
5.83394
5.83394
17.4267
5.88581
6.45458
5.71935
5.71935
5.71935
5.71935
14.7653
14.6654
14.9786
15.0695
8.21267
8.21267
8.21267
8.21267
6.17835
6.17835
6.17835
6.17835
6.85299
18.0431
9.54158
8.37053
13.5512
8.37053
13.5512
8.37053
13.5512
8.37053
13.5512
7.98245
7.98245
7.52473
8.59165
9.80411
9.80411
9.80411
9.80411
6.01407
6.01407
6.01407
6.01407
6.70491
6.70491
6.70491
6.70491
6.70491
6.70491
6.70491
6.70491
9.16651
9.16651
9.16651
9.16651
10.5031
10.5031
10.5031
10.5031
8.29985
8.29985
8.30119
8.30119
11.0799
6.26712
12.9377
11.9201
11.9201
11.955
14.9745
7.42982
7.42982
7.42982
7.42982
7.14201
7.14201
7.14328
7.14328
4.26513
4.26513
4.26513
4.26513
4.60523
4.60523
4.60523
4.60523
7.09296
7.84363
5.58068
10.3808
8.32082
11.1368
10.0717
7.40248
7.40248
7.40248
7.40248
3.34568
3.34568
3.34568
3.34568
6.51625
14.6523
3.70286
3.70286
3.70286
3.70286
10.7983
10.7983
10.7983
10.7983
7.23862
7.33555
7.23862
7.33555
7.23862
7.33555
7.23862
7.33555
10.2818
4.51108
10.5026
14.922
13.3146
5.60387
5.60387
5.60387
5.60387
9.40411
1.61747
1.61747
1.61747
1.61747
6.97355
6.97355
10.7818
9.04037
8.37053
10.0195
8.37053
10.0195
10.0195
8.37053
8.37053
10.0195
15.9878
2.69277
7.79625
12.984
12.984
12.984
12.984
5.65268
17.2814
17.2814
17.2814
17.2814
23.1178
23.1178
15.8686
15.8686
23.1178
15.8686
23.1178
15.8686
8.91139
8.91139
8.91139
8.91139
3.64552
3.64552
3.64552
3.64552
7.76551
9.41429
9.41429
9.41429
9.41429
5.68191
5.68751
7.4907
7.00349
5.26547
5.98506
5.09022
3.3045
6.84955
6.84955
6.84955
6.84955
10.4043
10.4043
10.4043
10.4043
7.79877
7.79877
7.79877
7.79877
5.71244
6.40404
5.49203
10.6944
10.6944
10.6944
10.6944
13.4086
11.5408
8.79504
5.28736
5.25409
5.24319
5.64387
2.30929
5.64387
2.30929
5.64387
2.30929
5.64387
2.30929
3.1312
5.28736
5.25409
5.24319
5.71935
5.71935
5.71935
5.71935
7.72965
2.82597
2.82597
2.82597
2.82597
5.8059
5.8059
5.8059
5.8059
12.3995
12.3995
8.90063
8.90063
8.90063
8.90063
12.3995
12.3995
5.88575
12.3298
12.3298
7.65137
7.30664
7.35448
7.35462
11.5748
8.3424
14.2214
7.44689
5.26488
3.75222
3.75222
3.75222
3.75222
5.53336
5.53336
5.54363
5.53336
3.95839
3.95839
3.95839
3.95839
15.2598
15.2598
15.2598
15.2598
7.01007
7.01007
7.01007
7.01007
11.3791
3.72173
1.08688
1.08688
1.08688
1.08688
7.89707
7.89707
2.84416
2.84416
7.89707
7.89707
2.84416
2.84416
13.8292
13.8471
6.17077
11.756
5.50698
5.50698
5.50698
5.50698
4.97418
4.97418
4.97418
4.97418
10.2434
10.2434
10.2434
10.2434
7.33381
7.33381
8.30844
8.30844
8.30844
8.30844
3.9539
3.9539
3.9539
3.9539
8.33731
8.33731
8.33731
8.33731
5.95661
5.13526
5.13526
7.14919
7.13701
8.73028
8.73028
8.73028
8.73028
6.2561
13.541
23.6056
23.5336
21.9566
21.9583
9.03519
1.8583
1.8583
1.8583
1.8583
2.98813
8.82166
18.3474
10.353
7.09351
7.09351
7.09351
7.09351
6.15847
6.15847
6.7695
5.47844
7.90437
7.90437
7.90437
7.90437
9.4528
2.93055
1.61869
19.2475
19.2475
19.2475
19.2475
7.21573
7.21573
7.21573
7.21573
13.5726
13.5726
13.5726
13.5726
13.5228
8.82117
7.09296
8.21899
8.21899
8.21899
8.21899
1.85033
1.85033
1.85033
1.85033
9.03292
9.03292
9.03292
9.03292
4.79787
4.50718
1.37044
1.37044
1.37044
1.37044
5.39045
3.96012
4.29775
3.91204
6.51885
6.71073
10.6962
10.6962
10.6962
10.6962
11.2838
11.2838
9.63762
9.68484
8.21899
8.21899
8.21899
8.21899
10.3759
10.3759
10.3759
10.3759
3.98754
3.98754
3.98754
3.98754
11.654
11.654
11.654
11.654
6.29216
6.29216
6.29216
6.29216
3.99242
3.99242
3.99242
3.99242
5.35484
5.73647
16.8083
16.0553
16.0553
16.0553
16.0553
4.87596
4.87596
4.87596
4.87596
11.2208
11.2208
11.2208
11.2208
3.08378
3.08378
3.08378
3.08378
13.2421
1.93353
2.62119
7.42327
7.42327
7.42327
7.42327
7.94318
6.82599
4.24124
12.6131
12.6131
12.6131
12.6131
10.4293
7.26727
7.26727
7.26727
7.26727
14.0238
7.9388
7.9388
7.9388
7.9388
9.77855
11.1729
7.57933
7.32565
7.61953
7.28921
14.8384
13.8471
5.11157
16.1188
6.00475
8.37759
8.37759
8.37759
8.37759
6.65043
6.65043
6.65043
6.65043
11.0729
11.0729
8.74933
8.74933
11.0729
11.0729
8.74933
8.74933
7.77938
4.90709
6.93777
6.93777
6.93777
6.93777
12.3208
7.168
8.82117
7.91898
7.69375
8.32897
8.32897
8.29759
8.26173
6.7866
6.28401
4.29315
7.65249
10.7394
7.51049
8.0167
7.37007
12.839
7.37008
7.37773
12.837
12.839
7.37174
12.8284
7.19868
10.0397
7.19868
3.96346
10.0397
10.2955
6.37397
10.2959
6.28534
6.28534
6.28534
6.28534
9.4528
3.68931
7.52839
3.63917
7.30787
13.2444
13.2444
13.2444
13.2444
4.42685
8.43898
2.69924
2.69924
2.69924
2.69924
12.9377
4.44038
4.44038
4.44038
4.44038
12.7573
12.7573
11.785
9.35378
18.6025
18.6025
18.5952
18.5741
11.7153
6.2561
8.75648
8.77795
8.75648
8.77795
8.77795
8.75648
8.75648
8.77795
15.9791
10.0809
15.982
10.0803
15.9819
10.0811
13.1437
13.1415
11.9966
10.7419
23.0901
25.0194
7.37007
7.37008
11.4647
11.4647
7.37773
11.4647
7.37174
11.4647
12.7266
12.7266
12.7266
12.7266
11.2143
4.00525
4.00525
4.00525
4.00525
4.00525
4.00525
4.00525
4.00525
4.73783
2.53896
4.73783
2.53896
4.73783
2.53896
4.73783
2.53896
10.5886
10.5886
10.5886
10.5886
2.30929
2.30929
4.07367
4.07367
2.30929
4.07367
2.30929
4.07367
4.74711
4.74711
4.74711
4.74711
8.65945
7.6098
8.66131
7.6557
12.3276
8.33012
13.7976
13.7976
13.7976
13.7976
9.7646
11.0187
9.7646
9.7646
11.0187
11.0187
9.7646
11.0187
9.73333
9.73333
10.8538
10.8538
9.66193
3.49281
3.49281
3.49281
3.49281
5.71813
5.71813
5.71813
5.71813
4.29315
7.26915
7.65249
9.3044
3.20379
12.3276
6.40404
12.6023
12.6023
12.6023
12.6023
6.41435
6.41435
6.41435
6.41435
4.41255
4.41255
4.41255
4.41255
7.76166
6.45519
7.33389
7.33389
6.47634
6.56588
5.12192
5.12192
10.7818
9.04037
13.9582
3.99242
3.99242
3.99242
3.99242
5.76606
5.76606
5.76606
5.76606
8.78927
9.7284
11.3094
6.67892
3.63728
5.58098
14.9962
14.9871
16.2528
16.052
16.2161
16.2161
16.2161
16.2161
5.60288
5.60288
5.60288
5.60288
4.1167
4.1167
4.1167
4.1167
8.54464
8.54464
8.54464
8.54464
7.7347
0.748997
12.8191
10.4043
10.4043
10.4043
10.4043
4.34013
10.3216
12.0709
12.0709
10.7983
10.7983
10.7983
10.7983
12.0709
12.0709
9.35155
9.35155
9.35155
9.35155
12.7897
11.3596
16.0858
16.0858
16.0858
16.0858
16.0858
16.0858
16.0858
16.0858
6.77887
5.71195
7.58964
8.75805
15.4368
15.4368
15.4368
15.4368
7.7008
7.7008
7.7008
7.7008
7.03305
7.03305
7.03305
7.03305
10.2875
10.6889
10.6889
10.6889
10.6889
5.0214
5.0214
5.0214
5.0214
3.94727
3.75085
3.87654
3.75292
9.44944
8.20204
7.67995
7.67995
7.67995
7.67995
10.1469
10.1469
10.1469
10.1469
15.9878
10.3089
14.3604
14.8228
14.8228
14.8228
14.8228
10.1018
10.1018
10.1018
10.1018
3.57692
4.73889
9.91077
8.96066
5.58041
8.73028
8.73028
8.73028
8.73028
9.5675
2.89169
2.89169
2.89169
2.89169
4.8086
4.97615
9.26082
8.32082
11.1368
16.2003
2.31035
2.31035
2.31035
2.31035
7.21573
7.21573
7.21573
7.21573
13.5726
13.5726
13.5726
13.5726
12.5767
11.3604
11.3604
9.59015
9.59015
11.3604
9.59015
11.3604
9.59015
5.13526
5.13526
7.14919
7.13701
5.99227
5.76389
5.76389
5.76389
5.76389
0.597826
18.1056
18.1056
18.1056
18.1056
15.0853
21.8094
21.8094
21.8094
21.8094
21.8094
21.8094
21.8094
21.8094
7.07498
7.07498
7.07498
7.07498
6.30776
6.30776
6.30776
6.30776
9.82709
14.3604
13.9111
10.1528
9.49808
4.97276
18.1726
14.6523
11.082
1.57396
9.65582
9.65582
10.6712
10.6712
17.1607
8.29985
17.1607
8.29985
17.1638
8.30119
17.1638
8.30119
2.99023
10.556
10.556
10.556
10.556
12.7889
4.3552
12.7889
4.3552
4.28573
12.7744
4.37888
12.7815
2.7245
2.7245
2.7245
2.7245
4.62774
9.48059
4.62774
4.62774
9.48059
9.48059
4.62774
9.48059
11.8847
13.9836
8.16532
8.16532
7.30327
7.26466
6.85299
1.86454
1.86454
1.86454
1.86454
9.43711
3.98488
13.1437
2.54805
13.1415
2.56199
2.99023
11.3098
7.04786
6.11846
7.28121
11.551
11.551
11.551
11.551
7.46016
8.15194
6.55776
8.15194
6.55776
8.15194
6.55776
8.15194
6.55776
4.62774
4.62774
4.62774
4.62774
10.3798
10.3798
9.49972
9.49972
10.3798
10.3798
9.49972
9.49972
9.51958
8.75809
9.51958
8.75809
9.51958
8.75809
9.51958
8.75809
9.35707
10.3822
10.3822
10.3822
10.3822
4.26707
0.836085
3.8961
0.692611
4.39111
0.964701
3.85156
0.70602
7.61028
7.61028
7.61028
7.61028
9.65582
7.09135
9.65582
7.09135
10.1638
10.6712
10.1638
10.6712
9.80411
9.80411
9.80411
9.80411
9.44181
10.3089
5.54576
10.6944
10.6944
10.6944
10.6944
3.26707
3.26707
3.26707
3.26707
5.94
6.26613
6.26613
6.26613
6.26613
8.83372
5.24395
5.24395
9.46687
9.46687
9.46687
9.46687
8.69212
7.97181
8.9209
3.78898
3.78898
3.78898
3.78898
11.2484
7.22666
7.22666
7.60835
7.64096
9.32406
9.00687
9.00687
9.00687
9.00687
8.54464
8.54464
8.54464
8.54464
10.3822
10.3822
10.3822
10.3822
7.73212
7.73212
7.73212
7.73212
11.7456
10.1991
5.64079
12.7897
5.07367
9.25605
8.78543
3.72562
5.05425
5.05425
5.05425
5.05425
5.05425
5.05425
5.05425
5.05425
5.21371
3.7638
5.21371
3.76381
5.22568
3.76943
5.23612
3.7576
10.4969
10.4969
9.63762
9.68484
8.16299
9.43711
7.02919
7.02919
6.9963
7.02919
4.62076
4.34742
8.27294
8.27294
8.27294
8.27294
4.15233
4.14672
14.4589
4.14661
11.6345
3.25976
3.25976
3.25976
3.25976
11.927
11.9279
5.11942
11.9282
5.37183
9.61758
10.4846
10.4846
10.4846
10.4846
7.01007
7.01007
7.01007
7.01007
8.74933
11.0729
11.0729
8.74933
21.8094
21.8094
21.8094
8.74933
21.8094
21.8094
8.74933
21.8094
21.8094
21.8094
11.0729
11.0729
3.31207
3.31207
3.31207
3.31207
7.14811
7.14811
7.14811
7.14811
8.65565
8.65417
10.0638
8.65457
4.30295
4.84052
8.38195
10.1138
4.71227
4.84052
8.43915
6.42702
6.42702
6.42124
6.42124
8.16158
8.16158
8.16158
8.16158
8.16158
8.16158
8.16158
8.16158
11.3744
11.3744
10.8064
10.8192
3.23281
6.77887
2.92584
6.11846
7.58964
15.3081
3.6726
3.6726
5.50698
5.50698
3.6726
3.6726
5.50698
5.50698
10.6968
15.1234
11.1168
2.49008
8.79504
6.5586
6.56277
6.5586
6.56277
6.55215
6.37694
5.73083
6.41265
8.83372
8.37759
8.37759
8.37759
8.37759
10.1528
9.49808
4.97276
8.16285
11.082
7.75508
17.5045
10.7816
10.4418
9.00568
13.541
11.8847
17.098
5.43287
6.33709
3.98724
5.33933
5.94
8.78543
4.31767
8.85598
10.1018
10.1018
10.1018
10.1018
3.71455
8.8886
7.83037
9.15076
10.7291
11.7861
8.32898
7.46016
5.87316
12.5393
11.038
)
;

boundaryField
{
    frontAndBack
    {
        type            calculated;
        value           uniform 0;
    }
    bottom
    {
        type            calculated;
        value           uniform 0;
    }
    right
    {
        type            calculated;
        value           uniform 0;
    }
    top
    {
        type            calculated;
        value           uniform 0;
    }
    left
    {
        type            calculated;
        value           uniform 0;
    }
}


// ************************************************************************* //
