/*--------------------------------*- C++ -*----------------------------------*\
| =========                 |                                                 |
| \\      /  F ield         | OpenFOAM: The Open Source CFD Toolbox           |
|  \\    /   O peration     | Version:  v2106                                 |
|   \\  /    A nd           | Website:  www.openfoam.com                      |
|    \\/     M anipulation  |                                                 |
\*---------------------------------------------------------------------------*/
FoamFile
{
    version     2.0;
    format      ascii;
    arch        "LSB;label=32;scalar=64";
    class       volScalarField;
    location    "constant";
    object      skewness;
}
// * * * * * * * * * * * * * * * * * * * * * * * * * * * * * * * * * * * * * //

dimensions      [0 0 0 0 0 0 0];

internalField   nonuniform List<scalar> 
2658
(
0.104328
0.104135
0.136603
0.136603
0.136603
0.136603
0.19441
0.19441
0.19441
0.19441
0.369496
0.369496
0.369496
0.369496
0.141351
0.174052
0.174052
0.20193
0.19154
0.0852125
0.0852125
0.0852125
0.0852125
0.0974376
0.064449
0.135802
0.241444
0.0284791
0.0284791
0.0284791
0.0284791
0.142592
0.142592
0.142592
0.142592
0.085785
0.0303661
0.0303661
0.0303661
0.0303661
0.134659
0.134659
0.134659
0.134659
0.0266909
0.071481
0.198373
0.154013
0.154013
0.154013
0.154013
0.103525
0.103525
0.103525
0.103525
0.118679
0.118679
0.118679
0.118679
0.103123
0.103123
0.103123
0.103123
0.204221
0.204221
0.204221
0.204221
0.266815
0.266815
0.266815
0.266815
0.119453
0.0785121
0.119453
0.119453
0.0785121
0.0785121
0.119453
0.0785121
0.0634239
0.161166
0.161166
0.161166
0.161166
0.197306
0.197306
0.197306
0.197306
0.115621
0.115621
0.117833
0.123428
0.0469573
0.0726842
0.0469573
0.0726842
0.0469573
0.0726842
0.0469573
0.0726842
0.136392
0.136392
0.253326
0.0737429
0.0737429
0.0737429
0.0737429
0.0357593
0.0357593
0.0357593
0.0357593
0.234841
0.104019
0.0603018
0.0843862
0.0646057
0.104019
0.0828133
0.0604499
0.0690065
0.153599
0.0765289
0.140418
0.143292
0.224602
0.224602
0.224602
0.224602
0.140953
0.140953
0.140953
0.140953
0.185297
0.185297
0.185297
0.185297
0.127855
0.127855
0.127855
0.127855
0.0765289
0.152214
0.152214
0.152214
0.152214
0.142592
0.142592
0.142592
0.142592
0.155968
0.155968
0.155968
0.155968
0.114369
0.0817726
0.230643
0.230643
0.230643
0.230643
0.0983601
0.0983601
0.098362
0.098362
0.251569
0.32223
0.0693924
0.057263
0.0584608
0.0524223
0.127484
0.123898
0.123898
0.0982307
0.102664
0.092378
0.092378
0.092378
0.092378
0.169761
0.169761
0.176091
0.176091
0.169761
0.169761
0.176091
0.176091
0.0345069
0.0377143
0.255809
0.0974376
0.133175
0.133175
0.133122
0.133159
0.160783
0.1144
0.0778144
0.0893367
0.0893367
0.0893792
0.0893367
0.121156
0.121156
0.121156
0.121156
0.200965
0.0328269
0.0328269
0.0328269
0.0328269
0.230643
0.230643
0.230643
0.230643
0.126702
0.126702
0.126702
0.126702
0.154839
0.064449
0.119478
0.119478
0.126401
0.126401
0.119478
0.119478
0.134546
0.134546
0.242326
0.242326
0.242326
0.242326
0.179522
0.179522
0.179522
0.179522
0.134488
0.151843
0.151843
0.151843
0.151843
0.303401
0.303401
0.303401
0.303401
0.0710323
0.376398
0.37425
0.241146
0.241146
0.241146
0.241146
0.242668
0.035844
0.0555267
0.0555267
0.0554777
0.0555267
0.121562
0.0525341
0.0525341
0.0525341
0.0525341
0.204221
0.204221
0.204221
0.204221
0.203522
0.203522
0.203522
0.203522
0.0599059
0.0599059
0.0599059
0.0599059
0.383466
0.135493
0.135493
0.135493
0.135493
0.221697
0.221697
0.221697
0.221697
0.193323
0.0758174
0.0758174
0.0758174
0.0758174
0.0593667
0.134488
0.0843887
0.113018
0.064768
0.0654661
0.0755308
0.0755308
0.0755308
0.0755308
0.141841
0.130224
0.115621
0.115621
0.117833
0.123428
0.201681
0.201681
0.201681
0.201681
0.0610286
0.0610286
0.0610286
0.0610286
0.157757
0.0851481
0.0851481
0.0851481
0.0851481
0.161166
0.161166
0.161166
0.161166
0.19094
0.163422
0.163422
0.163422
0.163422
0.214424
0.214424
0.214424
0.214424
0.144438
0.144438
0.144438
0.144438
0.249937
0.315438
0.315438
0.315438
0.315438
0.199959
0.199959
0.199959
0.199959
0.0850628
0.135669
0.134126
0.14176
0.0622265
0.0622265
0.0622265
0.0622265
0.127969
0.127969
0.0754222
0.0754222
0.0754222
0.0754222
0.0348679
0.0348679
0.0348679
0.0348679
0.0536043
0.0536043
0.0537878
0.0536043
0.202753
0.202753
0.202753
0.202753
0.142222
0.0403229
0.0403229
0.0403229
0.0403229
0.207094
0.135802
0.0914231
0.0914231
0.0914231
0.0914231
0.22017
0.22017
0.22017
0.22017
0.0789085
0.0789085
0.0789085
0.0789085
0.0789085
0.0789085
0.0789085
0.0789085
0.191955
0.191955
0.191955
0.191955
0.163814
0.163814
0.163814
0.163814
0.157186
0.157186
0.157186
0.157186
0.155881
0.155881
0.155881
0.155881
0.128688
0.128688
0.128688
0.128688
0.128688
0.128688
0.128688
0.128688
0.0852685
0.0852685
0.0852685
0.0852685
0.103399
0.103399
0.103399
0.103399
0.148132
0.148132
0.148132
0.148132
0.0356575
0.117569
0.192028
0.192028
0.192028
0.192028
0.192028
0.192028
0.192028
0.192028
0.150357
0.118679
0.118679
0.118679
0.118679
0.228242
0.11389
0.11389
0.11389
0.11389
0.160825
0.160825
0.160825
0.160825
0.199959
0.199959
0.199959
0.199959
0.0336759
0.0336759
0.0336759
0.0336759
0.203291
0.203291
0.21013
0.21013
0.197152
0.197152
0.197152
0.197152
0.197152
0.197152
0.197152
0.197152
0.184124
0.0767045
0.193235
0.193235
0.179027
0.179027
0.179027
0.179027
0.032223
0.0352781
0.0327488
0.0352111
0.16626
0.16626
0.16626
0.16626
0.0815585
0.0815585
0.081321
0.0815585
0.314152
0.147755
0.202753
0.202753
0.202753
0.202753
0.135275
0.135275
0.135275
0.135275
0.074912
0.0991955
0.161531
0.161531
0.161531
0.161531
0.0994825
0.0994824
0.0994581
0.0993498
0.228513
0.247558
0.228513
0.247558
0.228513
0.228513
0.247558
0.247558
0.0323101
0.0323101
0.0323101
0.0323101
0.103817
0.103817
0.103817
0.103817
0.131968
0.081028
0.081028
0.081028
0.081028
0.108445
0.337154
0.337154
0.337154
0.337154
0.148801
0.148801
0.240085
0.175079
0.082107
0.082107
0.082107
0.082107
0.0973108
0.0973108
0.0973108
0.0973108
0.170122
0.0705884
0.369496
0.369496
0.369496
0.369496
0.152108
0.230471
0.121487
0.121487
0.121487
0.121487
0.0499508
0.201681
0.201681
0.201681
0.201681
0.196267
0.198531
0.196121
0.198235
0.157757
0.0536043
0.0703817
0.0537878
0.0536043
0.275023
0.148132
0.148132
0.148132
0.148132
0.268243
0.268243
0.268243
0.268243
0.0649815
0.065357
0.176091
0.169042
0.176091
0.169042
0.176091
0.176091
0.169042
0.169042
0.192416
0.135275
0.135275
0.135275
0.135275
0.315438
0.315438
0.315438
0.315438
0.275023
0.129757
0.129757
0.129757
0.129757
0.128611
0.123513
0.128611
0.112094
0.0512626
0.0512634
0.0517491
0.0494238
0.200024
0.141071
0.141071
0.141071
0.141071
0.186483
0.186483
0.195074
0.193619
0.14702
0.14702
0.174277
0.14702
0.174277
0.14702
0.174277
0.174277
0.0873569
0.0873569
0.0873569
0.0873569
0.0873569
0.0873569
0.0873569
0.0873569
0.188241
0.188241
0.188241
0.188241
0.167545
0.0785818
0.0785818
0.0818325
0.0767174
0.150902
0.136603
0.136603
0.136603
0.136603
0.160289
0.0777103
0.177228
0.177228
0.17746
0.177519
0.0556303
0.0556303
0.062805
0.0556303
0.157186
0.157186
0.157186
0.157186
0.155881
0.155881
0.155881
0.155881
0.0875788
0.0875788
0.0912321
0.0912321
0.182939
0.182939
0.182939
0.182939
0.24121
0.162841
0.162841
0.162841
0.162841
0.162841
0.162841
0.162841
0.162841
0.103523
0.0644535
0.224525
0.224525
0.224525
0.224525
0.126846
0.212582
0.199648
0.199764
0.066759
0.0819436
0.152029
0.152029
0.152029
0.152029
0.140075
0.150908
0.150908
0.150908
0.150908
0.275042
0.275042
0.275042
0.275042
0.082797
0.082797
0.0871131
0.0939558
0.21155
0.21155
0.21155
0.21155
0.110835
0.110835
0.110835
0.110835
0.190388
0.190388
0.190388
0.190388
0.159548
0.159548
0.159548
0.159548
0.0381206
0.0381206
0.0381206
0.0381206
0.0381206
0.0381206
0.0381206
0.0381206
0.054382
0.054382
0.054382
0.054382
0.158313
0.158313
0.158313
0.158313
0.165244
0.165244
0.333333
0.333333
0.333333
0.333333
0.190388
0.190388
0.190388
0.190388
0.0292549
0.0292549
0.0292549
0.0292549
0.198148
0.198148
0.198148
0.198148
0.198148
0.198148
0.198148
0.198148
0.19052
0.178916
0.16626
0.16626
0.16626
0.16626
0.179027
0.0710516
0.179027
0.0710516
0.179027
0.0710516
0.179027
0.0710516
0.111056
0.112979
0.232221
0.232221
0.232221
0.232221
0.232221
0.232221
0.232221
0.232221
0.152108
0.230471
0.0547231
0.0547231
0.0547231
0.0547231
0.128857
0.128899
0.130249
0.128898
0.203291
0.203291
0.21013
0.21013
0.0583433
0.0583433
0.0583433
0.0583433
0.158805
0.159293
0.0637254
0.0637254
0.0637254
0.0637254
0.0852257
0.0852257
0.0852257
0.0852257
0.0548376
0.0212866
0.0162285
0.0171226
0.024596
0.0166406
0.0231969
0.0171226
0.110835
0.110835
0.110835
0.110835
0.0439488
0.0439488
0.0447062
0.0439488
0.193873
0.193873
0.193873
0.193873
0.244918
0.244918
0.249159
0.244918
0.0401893
0.0618212
0.0348463
0.0348463
0.0347904
0.0348463
0.190784
0.226562
0.252772
0.13104
0.15111
0.130993
0.151041
0.0708341
0.130739
0.0670612
0.131738
0.174201
0.174201
0.174201
0.174201
0.10787
0.10787
0.10787
0.10787
0.111814
0.115806
0.0716608
0.0819436
0.134147
0.134147
0.134147
0.152302
0.130736
0.134147
0.155822
0.136534
0.17174
0.185305
0.185305
0.110034
0.110034
0.110034
0.110034
0.182734
0.188522
0.241256
0.219901
0.274068
0.214424
0.214424
0.214424
0.214424
0.173798
0.18278
0.197819
0.197499
0.0603671
0.179389
0.0603671
0.179389
0.0603671
0.179389
0.0603671
0.179389
0.159486
0.159486
0.159486
0.159486
0.112891
0.194677
0.151218
0.151693
0.0477436
0.0477436
0.0477436
0.0477436
0.303027
0.0991955
0.17203
0.182765
0.157652
0.157652
0.157652
0.157652
0.205631
0.194933
0.188241
0.188241
0.188241
0.188241
0.150357
0.190784
0.0786653
0.057733
0.057733
0.057733
0.057733
0.129283
0.169269
0.131224
0.158313
0.158313
0.158313
0.158313
0.140953
0.140953
0.140953
0.140953
0.270112
0.0319772
0.17185
0.17185
0.17185
0.17185
0.111958
0.111958
0.111958
0.111958
0.159866
0.111865
0.1528
0.152673
0.134694
0.136256
0.164166
0.179053
0.179053
0.179053
0.179053
0.242326
0.242326
0.242326
0.242326
0.0859262
0.163364
0.163364
0.163364
0.163364
0.0864818
0.0477901
0.0864815
0.0604115
0.164045
0.145359
0.145359
0.145359
0.145359
0.166647
0.152029
0.152029
0.152029
0.152029
0.0799092
0.255809
0.231308
0.097405
0.0238549
0.0951851
0.0238549
0.0311045
0.0534009
0.0591423
0.0591423
0.136694
0.136694
0.136694
0.136694
0.220106
0.0662951
0.0662951
0.0822835
0.0822835
0.0662951
0.0822835
0.0662951
0.0822835
0.071336
0.071336
0.071336
0.071336
0.150951
0.376398
0.37425
0.218319
0.148795
0.148795
0.148795
0.148795
0.071336
0.071336
0.071336
0.071336
0.0714958
0.0101989
0.20317
0.20317
0.20317
0.20317
0.167534
0.167534
0.167534
0.167534
0.259067
0.259067
0.259067
0.259067
0.0504171
0.0504171
0.0498954
0.0504171
0.100998
0.184249
0.184249
0.184249
0.184249
0.169761
0.169761
0.169761
0.169761
0.149786
0.235086
0.235086
0.235086
0.235086
0.0938094
0.0938094
0.163422
0.0938094
0.163422
0.163422
0.0938094
0.163422
0.0548801
0.0548801
0.0548801
0.0548801
0.241059
0.167211
0.167211
0.167211
0.167211
0.117396
0.123665
0.123665
0.123665
0.123665
0.148224
0.148224
0.148224
0.148224
0.221697
0.221697
0.221697
0.221697
0.087105
0.205364
0.161531
0.161531
0.161531
0.161531
0.136961
0.18278
0.197819
0.197499
0.204773
0.204773
0.204773
0.204773
0.241146
0.241146
0.241146
0.241146
0.112623
0.112623
0.126701
0.126184
0.0567112
0.0567112
0.0567112
0.0567112
0.104629
0.104629
0.104627
0.104627
0.04406
0.04406
0.04406
0.04406
0.159866
0.111865
0.169042
0.169042
0.169042
0.169042
0.362305
0.362305
0.362305
0.362305
0.249937
0.12772
0.12772
0.12772
0.12772
0.0656393
0.056593
0.056593
0.056593
0.056593
0.0421325
0.179389
0.0158351
0.179389
0.179389
0.0158351
0.0158351
0.179389
0.0158351
0.185366
0.185366
0.185366
0.185366
0.167211
0.167211
0.167211
0.167211
0.143162
0.143162
0.143162
0.143162
0.227092
0.0486293
0.0595411
0.0703817
0.0317209
0.0486293
0.0700532
0.0523948
0.0450083
0.0965174
0.0965174
0.0965174
0.0965174
0.0854429
0.0854429
0.0854429
0.0854429
0.0712128
0.0712128
0.0712128
0.0712128
0.224602
0.224602
0.224602
0.224602
0.0443528
0.0284791
0.0443528
0.0284791
0.0443528
0.0284791
0.0443528
0.0284791
0.104817
0.104817
0.104817
0.104817
0.11511
0.11511
0.104817
0.104817
0.092378
0.092378
0.092378
0.092378
0.170005
0.170005
0.170005
0.170005
0.135767
0.155968
0.155968
0.155968
0.155968
0.134688
0.134688
0.134688
0.134688
0.160783
0.1144
0.194677
0.161956
0.149808
0.148959
0.138154
0.358554
0.358554
0.358554
0.358554
0.235738
0.235738
0.235738
0.235738
0.234841
0.0355281
0.112891
0.0969299
0.0969299
0.0969299
0.0969299
0.226218
0.226218
0.226218
0.226218
0.202527
0.131152
0.275042
0.275042
0.275042
0.275042
0.158484
0.158484
0.158484
0.158484
0.158484
0.158484
0.158484
0.158484
0.0294504
0.0294504
0.0272104
0.0449552
0.228242
0.226218
0.226218
0.226218
0.226218
0.159465
0.159465
0.159465
0.159465
0.178595
0.178595
0.178595
0.178595
0.131968
0.191631
0.244109
0.244109
0.244109
0.244109
0.0717023
0.266815
0.266815
0.266815
0.266815
0.0659489
0.0934258
0.0340287
0.17134
0.17134
0.182841
0.182707
0.127855
0.127855
0.127855
0.127855
0.0872623
0.0728606
0.121788
0.121788
0.121788
0.121788
0.198373
0.0693924
0.125269
0.125269
0.125269
0.125269
0.125269
0.125269
0.125269
0.125269
0.19094
0.0437053
0.240097
0.240094
0.238187
0.240174
0.0445237
0.0526096
0.00282166
0.00282166
0.00282166
0.00282166
0.0348164
0.0673351
0.0672406
0.19052
0.178916
0.0824124
0.0824124
0.0824124
0.0824124
0.253326
0.270112
0.0556303
0.0556303
0.062805
0.0556303
0.131038
0.131038
0.131038
0.131038
0.131038
0.131038
0.131038
0.131038
0.0154689
0.244918
0.244918
0.249159
0.244918
0.148007
0.174723
0.224464
0.224464
0.224464
0.224464
0.0479568
0.21179
0.21179
0.21179
0.21179
0.107472
0.139071
0.139071
0.139071
0.139071
0.0295516
0.0295516
0.0534009
0.0191105
0.146188
0.146188
0.146188
0.146188
0.176841
0.176841
0.176841
0.176841
0.180702
0.171482
0.155417
0.134252
0.134252
0.134252
0.134252
0.0268672
0.146512
0.162362
0.177687
0.177687
0.177687
0.177687
0.185612
0.184991
0.211512
0.210147
0.0328926
0.0328926
0.0328926
0.0328926
0.22017
0.22017
0.22017
0.22017
0.0355281
0.0711172
0.153565
0.197306
0.115895
0.197306
0.115895
0.197306
0.115895
0.197306
0.115895
0.018212
0.018212
0.0289467
0.0275869
0.303401
0.303401
0.303401
0.303401
0.155475
0.155475
0.155475
0.155475
0.195074
0.0849948
0.188508
0.193619
0.0849948
0.0849948
0.188508
0.0849948
0.228885
0.228885
0.228885
0.228885
0.148795
0.148795
0.148795
0.148795
0.115927
0.115927
0.115952
0.115952
0.0644765
0.254063
0.183079
0.0792381
0.0792381
0.0664381
0.0525043
0.174277
0.174277
0.174277
0.174277
0.181376
0.181376
0.181372
0.181372
0.191955
0.191955
0.191955
0.191955
0.138078
0.138078
0.138078
0.138078
0.0627809
0.0430746
0.161956
0.149808
0.148959
0.138154
0.0251759
0.253144
0.253144
0.253144
0.253144
0.301604
0.301604
0.301604
0.301604
0.0705209
0.153599
0.110271
0.110271
0.110271
0.110271
0.115948
0.115948
0.115948
0.115948
0.18882
0.179053
0.18882
0.179053
0.18882
0.179053
0.18882
0.179053
0.202527
0.192416
0.0219967
0.0666081
0.0628952
0.147698
0.147698
0.147698
0.147698
0.0470872
0.109482
0.109482
0.109482
0.109482
0.119565
0.119565
0.128344
0.119996
0.159004
0.0675181
0.159004
0.0675181
0.0675181
0.159004
0.159004
0.0675181
0.229833
0.131152
0.121562
0.184568
0.184568
0.184568
0.184568
0.0848944
0.115372
0.115372
0.115372
0.115372
0.26113
0.26113
0.141487
0.141487
0.26113
0.141487
0.26113
0.141487
0.183976
0.183976
0.183976
0.183976
0.204773
0.204773
0.204773
0.204773
0.154747
0.182939
0.182939
0.182939
0.182939
0.185612
0.184991
0.211512
0.210147
0.174052
0.20193
0.174052
0.19154
0.21155
0.21155
0.21155
0.21155
0.145455
0.145455
0.145455
0.145455
0.357639
0.357639
0.357639
0.357639
0.0639518
0.0853524
0.0445237
0.190629
0.190629
0.190629
0.190629
0.097962
0.193323
0.0657629
0.0736668
0.0734523
0.0735247
0.181376
0.144572
0.181376
0.144572
0.181372
0.144572
0.181372
0.144572
0.142229
0.288771
0.289148
0.289033
0.172819
0.172819
0.172819
0.172819
0.059247
0.0307723
0.0307723
0.0307723
0.0307723
0.0804006
0.0804006
0.0804006
0.0804006
0.160825
0.160825
0.204032
0.204032
0.204032
0.204032
0.160825
0.160825
0.0366155
0.0733084
0.0733084
0.0882294
0.0882294
0.194375
0.194376
0.220299
0.198555
0.0711172
0.128497
0.059247
0.0589756
0.0589756
0.0589756
0.0589756
0.0893367
0.0893367
0.0893792
0.0893367
0.0824124
0.0824124
0.0824124
0.0824124
0.259067
0.259067
0.259067
0.259067
0.0686946
0.0686946
0.0686946
0.0686946
0.207094
0.0823545
0.309679
0.309679
0.309679
0.309679
0.148216
0.148216
0.144572
0.144572
0.148216
0.148216
0.144572
0.144572
0.0201204
0.0203355
0.0441833
0.0311058
0.203522
0.203522
0.203522
0.203522
0.183595
0.183595
0.183595
0.183595
0.0542706
0.0542706
0.0542706
0.0542706
0.291049
0.0854458
0.124064
0.124064
0.124064
0.124064
0.159548
0.159548
0.159548
0.159548
0.190684
0.190684
0.190684
0.190684
0.17308
0.0457476
0.0457476
0.0606977
0.0608178
0.10787
0.10787
0.10787
0.10787
0.0627809
0.32223
0.264561
0.264609
0.246383
0.256046
0.16314
0.20317
0.20317
0.20317
0.20317
0.142648
0.241444
0.117926
0.0990663
0.155975
0.155975
0.155975
0.155975
0.0544815
0.0209183
0.17203
0.0263189
0.124064
0.124064
0.124064
0.124064
0.0437053
0.154502
0.142648
0.0999561
0.0999561
0.0999561
0.0999561
0.151868
0.151868
0.151868
0.151868
0.134688
0.134688
0.134688
0.134688
0.107246
0.100159
0.0645661
0.114647
0.114647
0.114647
0.114647
0.109994
0.109994
0.109994
0.109994
0.37209
0.37209
0.37209
0.37209
0.153148
0.17046
0.155975
0.155975
0.155975
0.155975
0.150951
0.212582
0.182734
0.188522
0.241256
0.219901
0.143162
0.143162
0.143162
0.143162
0.145077
0.145077
0.136133
0.135948
0.0190301
0.0190301
0.0190301
0.0190301
0.0959696
0.0959696
0.0959696
0.0959696
0.0518155
0.0518155
0.0518155
0.0518155
0.147083
0.147083
0.147083
0.147083
0.145455
0.145455
0.145455
0.145455
0.19984
0.19984
0.19984
0.19984
0.146512
0.162362
0.254063
0.148224
0.148224
0.148224
0.148224
0.37209
0.37209
0.37209
0.37209
0.139888
0.139888
0.139888
0.139888
0.144683
0.144683
0.144683
0.144683
0.242668
0.0818363
0.0478117
0.204043
0.204043
0.204043
0.204043
0.122826
0.122532
0.0256616
0.191625
0.191625
0.191625
0.191625
0.0366155
0.179522
0.179522
0.179522
0.179522
0.146568
0.118082
0.118082
0.118082
0.118082
0.108099
0.140343
0.116881
0.114175
0.117382
0.114083
0.297873
0.265357
0.069413
0.291049
0.158551
0.253144
0.253144
0.253144
0.253144
0.184568
0.184568
0.184568
0.184568
0.200269
0.200269
0.214376
0.214376
0.200269
0.200269
0.214376
0.214376
0.038832
0.0402158
0.150908
0.150908
0.150908
0.150908
0.154839
0.128732
0.148625
0.0666081
0.0628952
0.0403713
0.0403713
0.040204
0.0402834
0.122327
0.122301
0.0669522
0.0712586
0.17174
0.195747
0.235002
0.137241
0.240097
0.137241
0.137309
0.238187
0.240094
0.137256
0.240174
0.188508
0.0558428
0.188508
0.162144
0.0558428
0.0818325
0.182755
0.0616408
0.193873
0.193873
0.193873
0.193873
0.0840882
0.109749
0.153183
0.131128
0.135587
0.0201009
0.0201009
0.0201009
0.0201009
0.0225802
0.023393
0.0849948
0.0849948
0.0849948
0.0849948
0.0980749
0.172819
0.172819
0.172819
0.172819
0.119565
0.119565
0.128344
0.119996
0.0567306
0.0567306
0.0569396
0.0570795
0.191833
0.0442109
0.173916
0.14857
0.173916
0.14857
0.14857
0.173916
0.173916
0.14857
0.288771
0.132938
0.289148
0.132924
0.289033
0.132928
0.0601188
0.0600534
0.215078
0.12256
0.147971
0.13417
0.137241
0.137241
0.157652
0.157652
0.137309
0.157652
0.137256
0.157652
0.355421
0.355421
0.355421
0.355421
0.117396
0.0700087
0.134252
0.0700087
0.134252
0.0700087
0.134252
0.0700087
0.134252
0.131211
0.0980576
0.131211
0.0980576
0.131211
0.0980576
0.131211
0.0980576
0.224035
0.224035
0.224035
0.224035
0.178595
0.178595
0.14702
0.14702
0.178595
0.14702
0.178595
0.14702
0.19984
0.19984
0.19984
0.19984
0.068933
0.151218
0.0689158
0.151693
0.189568
0.189568
0.110034
0.110034
0.110034
0.110034
0.210549
0.120885
0.210549
0.210549
0.120885
0.120885
0.210549
0.120885
0.132441
0.132441
0.13246
0.13246
0.229833
0.0686946
0.0686946
0.0686946
0.0686946
0.0648581
0.0648581
0.0648581
0.0648581
0.0888876
0.0921164
0.10366
0.0910455
0.24121
0.111287
0.0985604
0.235086
0.235086
0.235086
0.235086
0.230074
0.230074
0.230074
0.230074
0.357639
0.357639
0.357639
0.357639
0.191631
0.0919583
0.173901
0.173901
0.151137
0.147055
0.173901
0.173901
0.151137
0.147055
0.383466
0.137208
0.137208
0.137208
0.137208
0.190684
0.190684
0.190684
0.190684
0.0891153
0.133422
0.100121
0.100121
0.0970407
0.0766495
0.1528
0.152673
0.134694
0.136256
0.204043
0.204043
0.204043
0.204043
0.127489
0.127489
0.127489
0.127489
0.0551814
0.0551814
0.0551814
0.0551814
0.118075
0.118075
0.118075
0.118075
0.274068
0.17308
0.135767
0.190549
0.190549
0.190549
0.190549
0.124357
0.111814
0.0365838
0.0365838
0.0820195
0.0820195
0.0820195
0.0820195
0.0365838
0.0365838
0.160609
0.160609
0.160609
0.160609
0.053553
0.142222
0.231843
0.231843
0.231843
0.231843
0.231843
0.231843
0.231843
0.231843
0.162992
0.167508
0.165428
0.111596
0.0909174
0.0909174
0.0909174
0.0909174
0.125594
0.125594
0.125594
0.125594
0.310812
0.310812
0.310812
0.310812
0.20197
0.318921
0.318921
0.318921
0.318921
0.168553
0.168553
0.168553
0.168553
0.0871911
0.0868014
0.0871342
0.0869831
0.153183
0.135587
0.156077
0.156077
0.156077
0.156077
0.211089
0.211089
0.211089
0.211089
0.124357
0.0835514
0.0788855
0.18718
0.18718
0.18718
0.18718
0.189584
0.189584
0.189584
0.189584
0.111056
0.112979
0.0792619
0.0901392
0.251569
0.0313043
0.0313043
0.0313043
0.0313043
0.0985604
0.347824
0.347824
0.347824
0.347824
0.199989
0.173798
0.166142
0.117924
0.14571
0.20197
0.156077
0.156077
0.156077
0.156077
0.127708
0.127708
0.127708
0.127708
0.133802
0.133802
0.133802
0.133802
0.144374
0.0712128
0.0712128
0.0659507
0.0659507
0.0712128
0.0659507
0.0712128
0.0659507
0.244506
0.244506
0.213244
0.213228
0.087105
0.358554
0.358554
0.358554
0.358554
0.0541679
0.0992979
0.0992979
0.0992979
0.0992979
0.0639518
0.267965
0.267965
0.243712
0.267965
0.243712
0.267965
0.243712
0.243712
0.0800933
0.0800933
0.0800933
0.0800933
0.124722
0.124722
0.124722
0.124722
0.158551
0.189192
0.194385
0.140418
0.143292
0.0510954
0.108783
0.0496802
0.167095
0.0980749
0.0733084
0.0733084
0.0882294
0.0882294
0.0983601
0.149857
0.0983601
0.149857
0.098362
0.149826
0.098362
0.149705
0.0853524
0.158155
0.158155
0.158155
0.158155
0.0567306
0.150257
0.0567306
0.150257
0.179535
0.0569396
0.179723
0.0570795
0.18882
0.18882
0.18882
0.18882
0.041737
0.230074
0.041737
0.041737
0.230074
0.230074
0.041737
0.230074
0.15017
0.154621
0.244506
0.244506
0.213244
0.213228
0.0397222
0.185366
0.185366
0.185366
0.185366
0.095622
0.0324907
0.13104
0.199648
0.130993
0.199764
0.0446967
0.205364
0.0871254
0.0935128
0.0792619
0.0732256
0.0732256
0.0732256
0.0732256
0.0901392
0.0582209
0.0527609
0.0582209
0.0527609
0.0582209
0.0527609
0.0582209
0.0527609
0.0554717
0.0554717
0.0554717
0.0554717
0.243712
0.243712
0.267965
0.267965
0.243712
0.243712
0.267965
0.267965
0.0474463
0.0873233
0.0474463
0.0873233
0.0474463
0.0873233
0.0474463
0.0873233
0.0384518
0.0443065
0.0443065
0.0443065
0.0443065
0.196267
0.147712
0.198531
0.14879
0.196121
0.147643
0.198235
0.148994
0.127489
0.127489
0.127489
0.127489
0.0527672
0.150257
0.0527672
0.150257
0.179535
0.0636205
0.179723
0.0636205
0.0852257
0.0852257
0.0852257
0.0852257
0.0718379
0.114198
0.138666
0.154113
0.154113
0.154113
0.154113
0.139106
0.139106
0.139106
0.139106
0.166878
0.354429
0.354429
0.354429
0.354429
0.153032
0.0812481
0.0435694
0.244109
0.244109
0.244109
0.244109
0.170122
0.0633292
0.200024
0.190549
0.190549
0.190549
0.190549
0.216189
0.17134
0.17134
0.176864
0.176419
0.136069
0.166306
0.166306
0.166306
0.166306
0.137934
0.137934
0.137934
0.137934
0.0882376
0.0882376
0.0882376
0.0882376
0.0263284
0.0263284
0.0263284
0.0263284
0.215078
0.148566
0.316637
0.0718379
0.149933
0.174466
0.166647
0.10367
0.14199
0.16403
0.14199
0.16403
0.14199
0.16403
0.14199
0.16403
0.177228
0.136365
0.177228
0.136365
0.17746
0.13635
0.177519
0.136286
0.145077
0.145077
0.136133
0.135948
0.0657629
0.106303
0.0459047
0.0459047
0.0456052
0.0459047
0.0842862
0.105633
0.141551
0.141551
0.141551
0.141551
0.0799896
0.079968
0.113359
0.0799734
0.349233
0.129062
0.129062
0.129062
0.129062
0.125901
0.125891
0.0998472
0.125887
0.0625549
0.119927
0.143736
0.143736
0.143736
0.143736
0.195325
0.195325
0.195325
0.195325
0.108573
0.110687
0.110687
0.108573
0.0550869
0.0550869
0.0550869
0.108573
0.0550869
0.0550869
0.108573
0.0550869
0.0550869
0.0550869
0.110687
0.110687
0.184709
0.184709
0.184709
0.184709
0.139082
0.139082
0.139082
0.139082
0.132938
0.132924
0.146568
0.132928
0.0477901
0.0453892
0.046849
0.303027
0.0517491
0.0494238
0.0997637
0.0376697
0.064768
0.0376855
0.0654661
0.057733
0.0548801
0.057733
0.0548801
0.057733
0.0548801
0.057733
0.0548801
0.197166
0.197166
0.19603
0.196316
0.133857
0.114593
0.131461
0.111157
0.0993412
0.108732
0.102616
0.102616
0.172929
0.172929
0.102616
0.102616
0.172929
0.172929
0.0397222
0.198346
0.226562
0.0624474
0.0295254
0.101333
0.0129162
0.101333
0.0129162
0.0144643
0.102159
0.0962069
0.0154747
0.0615196
0.10513
0.10513
0.10513
0.10513
0.140557
0.147331
0.164045
0.10248
0.167095
0.205631
0.252772
0.175025
0.0623378
0.0623378
0.188821
0.15017
0.154621
0.166878
0.133592
0.110616
0.0842214
0.14229
0.174466
0.169269
0.131224
0.121172
0.121172
0.121172
0.121172
0.149933
0.127316
0.10366
0.133377
0.126152
0.241059
0.15792
0.108525
0.0825317
0.19732
0.150637
)
;

boundaryField
{
    frontAndBack
    {
        type            calculated;
        value           nonuniform List<scalar> 
5316
(
0
2.77556e-15
5.55112e-15
5.55112e-15
0
0
1.28081e-15
1.28081e-15
5.72196e-15
5.72196e-15
2.86098e-15
2.86098e-15
5.55112e-15
5.55112e-15
1.38778e-15
1.38778e-15
1.11022e-14
1.11022e-14
2.86098e-15
2.86098e-15
7.81461e-15
0
0
5.58758e-15
1.14439e-14
6.20634e-15
6.93889e-16
0
2.77556e-15
2.77556e-15
2.77556e-15
2.77556e-15
3.70535e-15
3.70535e-15
5.55112e-15
5.55112e-15
5.55112e-15
6.20634e-15
4.2114e-15
4.2114e-15
4.39648e-15
4.39648e-15
6.92065e-15
6.92065e-15
2.12215e-15
2.12215e-15
5.29118e-15
5.29118e-15
6.03632e-15
6.03632e-15
2.77556e-15
2.77556e-15
0
0
1.24127e-14
7.85046e-15
0
0
1.38778e-15
5.72196e-15
3.10317e-15
3.10317e-15
7.85046e-15
7.85046e-15
5.55112e-15
5.55112e-15
2.77556e-15
2.77556e-15
0
0
5.55112e-15
5.55112e-15
5.14955e-15
5.14955e-15
0
0
7.85046e-15
7.85046e-15
6.86308e-16
6.86308e-16
0
0
5.59432e-15
5.59432e-15
2.77556e-15
2.77556e-15
5.55112e-15
5.55112e-15
2.77556e-15
2.77556e-15
5.39799e-15
4.76468e-15
0
0
1.00735e-14
6.93889e-16
5.55112e-15
1.14728e-14
3.46945e-16
3.46945e-16
1.24844e-15
1.24844e-15
2.77556e-15
2.77556e-15
3.66542e-15
3.66542e-15
7.85046e-15
7.85046e-15
2.66689e-15
2.66689e-15
6.93889e-16
6.93889e-16
1.24127e-14
1.24127e-14
6.93889e-16
6.93889e-16
5.61847e-15
5.61847e-15
4.4034e-16
4.4034e-16
5.55112e-15
5.55112e-15
2.08167e-15
6.93889e-16
2.08167e-15
6.93889e-16
0
0
0
0
0
0
2.77556e-15
2.77556e-15
1.24127e-14
7.85046e-15
5.72196e-15
1.37404e-15
5.57923e-15
5.57923e-15
1.55158e-15
1.55158e-15
5.55112e-15
5.55112e-15
6.64588e-15
6.64588e-15
1.38778e-15
1.38778e-15
5.78909e-15
5.78909e-15
4.60403e-15
4.60403e-15
1.08521e-14
1.08521e-14
1.38778e-15
1.38778e-15
2.32962e-15
2.32962e-15
0
0
7.85046e-15
7.85046e-15
1.38778e-15
1.38778e-15
6.20634e-15
6.20634e-15
2.59366e-15
2.59366e-15
5.55112e-15
5.55112e-15
1.38778e-15
5.72196e-15
5.55112e-15
0
2.86098e-15
2.86098e-15
7.85046e-15
7.85046e-15
1.32389e-15
1.32389e-15
1.04708e-14
1.04708e-14
5.72196e-15
5.72196e-15
0
0
5.55112e-15
7.85046e-15
5.55112e-15
5.55112e-15
1.38778e-15
5.72196e-15
5.55112e-15
5.55112e-15
6.07416e-15
6.07416e-15
0
0
2.77556e-15
2.77556e-15
5.55112e-15
5.55112e-15
4.8974e-15
5.37032e-15
5.55112e-15
1.24127e-14
6.20634e-15
6.20634e-15
5.5968e-15
5.5968e-15
5.55112e-15
5.55112e-15
0
0
5.55112e-15
5.55112e-15
5.72196e-15
5.55112e-15
5.55112e-15
5.55112e-15
5.55112e-15
5.72196e-15
5.55112e-15
5.55112e-15
7.85046e-15
7.85046e-15
5.55112e-15
5.55112e-15
7.85046e-15
7.85046e-15
0
0
2.77556e-15
2.77556e-15
0
0
2.77556e-15
2.77556e-15
0
2.77556e-15
6.20634e-15
6.20634e-15
0
0
2.77556e-15
2.77556e-15
2.77556e-15
0
9.01362e-15
3.46945e-16
5.55112e-15
1.115e-14
3.46945e-16
3.46945e-16
5.55112e-15
5.55112e-15
1.08136e-14
0
5.37738e-15
5.59432e-15
5.72196e-15
5.72196e-15
1.55158e-15
1.55158e-15
1.0646e-14
1.24127e-14
2.77556e-15
2.77556e-15
0
1.11022e-14
2.77556e-15
2.77556e-15
1.64581e-14
5.48603e-15
5.27855e-15
5.72196e-15
5.59432e-15
5.59432e-15
6.85753e-16
6.85753e-16
2.77556e-15
2.77556e-15
4.97249e-15
4.97249e-15
4.97249e-15
4.97249e-15
5.55112e-15
5.72196e-15
1.34326e-15
2.44957e-15
4.74126e-15
4.74126e-15
9.593e-15
9.48252e-15
0
4.74126e-15
2.77556e-15
5.07748e-15
0
0
6.93889e-16
3.46945e-16
1.4397e-14
1.4397e-14
5.59432e-15
5.56195e-15
5.55112e-15
5.55112e-15
5.55112e-15
1.11022e-14
1.10567e-14
1.10567e-14
0
0
0
0
1.51937e-15
1.51937e-15
5.55112e-15
1.11022e-14
1.38778e-15
5.44918e-15
1.05332e-14
1.05332e-14
1.38778e-15
1.38778e-15
5.19739e-15
0
5.55112e-15
6.20634e-15
2.77556e-15
2.77556e-15
1.24127e-14
1.24127e-14
1.24127e-14
1.24127e-14
5.55112e-15
7.85046e-15
1.2097e-14
1.2097e-14
1.24127e-14
2.63832e-15
5.55112e-15
7.85046e-15
5.55112e-15
5.55112e-15
2.77556e-15
2.77556e-15
5.28998e-15
5.28998e-15
3.30623e-16
3.30623e-16
0
0
3.30623e-16
3.30623e-16
5.55112e-15
6.20634e-15
6.93889e-16
2.77483e-15
7.85046e-15
7.85046e-15
2.50741e-15
2.80558e-15
5.55112e-15
5.55112e-15
5.07244e-15
4.87265e-15
4.97577e-15
4.97577e-15
4.92011e-15
4.97577e-15
3.74821e-15
3.74821e-15
0
0
0
0
7.15609e-15
7.15609e-15
0
0
1.38778e-15
1.38778e-15
2.77556e-15
2.77556e-15
3.10317e-15
3.10317e-15
7.85046e-15
5.55112e-15
6.20634e-15
6.20634e-15
2.77556e-15
0
0
0
1.14439e-14
1.14439e-14
0
0
2.77556e-15
5.55112e-15
3.46945e-16
3.46945e-16
1.24127e-14
1.24127e-14
5.56195e-15
5.56195e-15
5.55112e-15
5.55112e-15
2.77556e-15
2.77556e-15
7.85046e-15
7.85046e-15
5.59432e-15
5.59432e-15
5.55112e-15
5.55112e-15
0
1.38778e-15
1.38778e-15
1.38778e-15
1.38778e-15
1.38778e-15
7.85046e-15
7.85046e-15
5.55112e-15
5.55112e-15
9.80918e-15
9.80918e-15
6.13074e-16
6.13074e-16